
  EPA STORM WATER MANAGEMENT MODEL - VERSION 5.1 (Build 5.2.0.dev1)
  --------------------------------------------------------------

  
  *********************************************************
  NOTE: The summary statistics displayed in this report are
  based on results found at every computational time step,  
  not just on results from each reporting time step.
  *********************************************************
  
  ****************
  Analysis Options
  ****************
  Flow Units ............... CFS
  Process Models:
    Rainfall/Runoff ........ YES
    RDII ................... NO
    Snowmelt ............... NO
    Groundwater ............ NO
    Flow Routing ........... YES
    Ponding Allowed ........ NO
    Water Quality .......... NO
  Infiltration Method ...... MODIFIED_GREEN_AMPT
  Flow Routing Method ...... DYNWAVE
  Starting Date ............ 02/06/2018 00:00:00
  Ending Date .............. 02/07/2018 00:00:00
  Antecedent Dry Days ...... 0.0
  Report Time Step ......... 00:01:00
  Wet Time Step ............ 00:05:00
  Dry Time Step ............ 01:00:00
  Routing Time Step ........ 10.00 sec
  Variable Time Step ....... YES
  Maximum Trials ........... 8
  Number of Threads ........ 1
  Head Tolerance ........... 0.005000 ft
  
  
  *********************
  Control Actions Taken
  *********************
   02/06/2018: 00:00:00 Link R1 setting changed to   0.00 by Control ToolkitAPI
   02/06/2018: 00:00:00 Link R2 setting changed to   0.00 by Control ToolkitAPI
   02/06/2018: 00:00:00 Link R1 setting changed to   0.00 by Control ToolkitAPI
   02/06/2018: 00:00:00 Link R1 setting changed to   0.12 by Control ToolkitAPI
   02/06/2018: 00:15:01 Link R1 setting changed to   0.00 by Control ToolkitAPI
   02/06/2018: 00:15:01 Link R1 setting changed to   0.12 by Control ToolkitAPI
   02/06/2018: 00:30:01 Link R1 setting changed to   0.00 by Control ToolkitAPI
   02/06/2018: 00:30:01 Link R1 setting changed to   0.12 by Control ToolkitAPI
   02/06/2018: 00:45:01 Link R1 setting changed to   0.00 by Control ToolkitAPI
   02/06/2018: 00:45:01 Link R1 setting changed to   0.12 by Control ToolkitAPI
   02/06/2018: 01:00:01 Link R1 setting changed to   0.00 by Control ToolkitAPI
   02/06/2018: 01:00:01 Link R1 setting changed to   0.12 by Control ToolkitAPI
   02/06/2018: 01:15:01 Link R1 setting changed to   0.00 by Control ToolkitAPI
   02/06/2018: 01:15:01 Link R1 setting changed to   0.12 by Control ToolkitAPI
   02/06/2018: 01:30:01 Link R1 setting changed to   0.00 by Control ToolkitAPI
   02/06/2018: 01:30:01 Link R1 setting changed to   0.12 by Control ToolkitAPI
   02/06/2018: 01:45:01 Link R1 setting changed to   0.00 by Control ToolkitAPI
   02/06/2018: 01:45:01 Link R1 setting changed to   0.12 by Control ToolkitAPI
   02/06/2018: 02:00:01 Link R1 setting changed to   0.00 by Control ToolkitAPI
   02/06/2018: 02:00:01 Link R1 setting changed to   0.13 by Control ToolkitAPI
   02/06/2018: 02:15:01 Link R1 setting changed to   0.00 by Control ToolkitAPI
   02/06/2018: 02:15:01 Link R1 setting changed to   0.13 by Control ToolkitAPI
   02/06/2018: 02:30:01 Link R1 setting changed to   0.00 by Control ToolkitAPI
   02/06/2018: 02:30:01 Link R1 setting changed to   0.13 by Control ToolkitAPI
   02/06/2018: 02:45:01 Link R1 setting changed to   0.00 by Control ToolkitAPI
   02/06/2018: 02:45:01 Link R1 setting changed to   0.14 by Control ToolkitAPI
   02/06/2018: 03:00:01 Link R1 setting changed to   0.00 by Control ToolkitAPI
   02/06/2018: 03:00:01 Link R1 setting changed to   0.14 by Control ToolkitAPI
   02/06/2018: 03:15:01 Link R1 setting changed to   0.00 by Control ToolkitAPI
   02/06/2018: 03:15:01 Link R1 setting changed to   0.15 by Control ToolkitAPI
   02/06/2018: 03:30:01 Link R1 setting changed to   0.00 by Control ToolkitAPI
   02/06/2018: 03:30:01 Link R1 setting changed to   0.15 by Control ToolkitAPI
   02/06/2018: 03:45:01 Link R1 setting changed to   0.00 by Control ToolkitAPI
   02/06/2018: 03:45:01 Link R1 setting changed to   0.16 by Control ToolkitAPI
   02/06/2018: 04:00:01 Link R1 setting changed to   0.00 by Control ToolkitAPI
   02/06/2018: 04:00:01 Link R1 setting changed to   0.16 by Control ToolkitAPI
   02/06/2018: 04:15:01 Link R1 setting changed to   0.00 by Control ToolkitAPI
   02/06/2018: 04:15:01 Link R1 setting changed to   0.17 by Control ToolkitAPI
   02/06/2018: 04:30:01 Link R1 setting changed to   0.00 by Control ToolkitAPI
   02/06/2018: 04:30:01 Link R1 setting changed to   0.17 by Control ToolkitAPI
   02/06/2018: 04:45:01 Link R1 setting changed to   0.00 by Control ToolkitAPI
   02/06/2018: 04:45:01 Link R1 setting changed to   0.18 by Control ToolkitAPI
   02/06/2018: 05:00:01 Link R1 setting changed to   0.00 by Control ToolkitAPI
   02/06/2018: 05:00:01 Link R1 setting changed to   0.19 by Control ToolkitAPI
   02/06/2018: 05:15:01 Link R1 setting changed to   0.00 by Control ToolkitAPI
   02/06/2018: 05:15:01 Link R1 setting changed to   0.20 by Control ToolkitAPI
   02/06/2018: 05:30:01 Link R1 setting changed to   0.00 by Control ToolkitAPI
   02/06/2018: 05:30:01 Link R1 setting changed to   0.21 by Control ToolkitAPI
   02/06/2018: 05:45:01 Link R1 setting changed to   0.00 by Control ToolkitAPI
   02/06/2018: 05:45:01 Link R1 setting changed to   0.23 by Control ToolkitAPI
   02/06/2018: 06:00:01 Link R1 setting changed to   0.00 by Control ToolkitAPI
   02/06/2018: 06:00:01 Link R1 setting changed to   0.30 by Control ToolkitAPI
   02/06/2018: 06:15:01 Link R1 setting changed to   0.00 by Control ToolkitAPI
   02/06/2018: 06:15:01 Link R1 setting changed to   0.43 by Control ToolkitAPI
   02/06/2018: 06:30:01 Link R1 setting changed to   0.00 by Control ToolkitAPI
   02/06/2018: 06:30:01 Link R1 setting changed to   0.54 by Control ToolkitAPI
   02/06/2018: 06:45:01 Link R1 setting changed to   0.00 by Control ToolkitAPI
   02/06/2018: 06:45:01 Link R1 setting changed to   0.61 by Control ToolkitAPI
   02/06/2018: 07:00:01 Link R1 setting changed to   0.00 by Control ToolkitAPI
   02/06/2018: 07:00:01 Link R1 setting changed to   0.65 by Control ToolkitAPI
   02/06/2018: 07:15:01 Link R1 setting changed to   0.00 by Control ToolkitAPI
   02/06/2018: 07:15:01 Link R1 setting changed to   0.66 by Control ToolkitAPI
   02/06/2018: 07:30:01 Link R1 setting changed to   0.00 by Control ToolkitAPI
   02/06/2018: 07:30:01 Link R1 setting changed to   0.67 by Control ToolkitAPI
   02/06/2018: 07:45:01 Link R1 setting changed to   0.00 by Control ToolkitAPI
   02/06/2018: 07:45:01 Link R1 setting changed to   0.68 by Control ToolkitAPI
   02/06/2018: 08:00:01 Link R1 setting changed to   0.00 by Control ToolkitAPI
   02/06/2018: 08:00:01 Link R1 setting changed to   0.68 by Control ToolkitAPI
   02/06/2018: 08:15:01 Link R1 setting changed to   0.00 by Control ToolkitAPI
   02/06/2018: 08:15:01 Link R1 setting changed to   0.68 by Control ToolkitAPI
   02/06/2018: 08:30:01 Link R1 setting changed to   0.00 by Control ToolkitAPI
   02/06/2018: 08:30:01 Link R1 setting changed to   0.69 by Control ToolkitAPI
   02/06/2018: 08:45:01 Link R1 setting changed to   0.00 by Control ToolkitAPI
   02/06/2018: 08:45:01 Link R1 setting changed to   0.69 by Control ToolkitAPI
   02/06/2018: 09:00:01 Link R1 setting changed to   0.00 by Control ToolkitAPI
   02/06/2018: 09:00:01 Link R1 setting changed to   0.69 by Control ToolkitAPI
   02/06/2018: 09:15:01 Link R1 setting changed to   0.00 by Control ToolkitAPI
   02/06/2018: 09:15:01 Link R1 setting changed to   0.69 by Control ToolkitAPI
   02/06/2018: 09:30:01 Link R1 setting changed to   0.00 by Control ToolkitAPI
   02/06/2018: 09:30:01 Link R1 setting changed to   0.69 by Control ToolkitAPI
   02/06/2018: 09:45:01 Link R1 setting changed to   0.00 by Control ToolkitAPI
   02/06/2018: 09:45:01 Link R1 setting changed to   0.69 by Control ToolkitAPI
   02/06/2018: 10:00:01 Link R1 setting changed to   0.00 by Control ToolkitAPI
   02/06/2018: 10:00:01 Link R1 setting changed to   0.69 by Control ToolkitAPI
   02/06/2018: 10:15:01 Link R1 setting changed to   0.00 by Control ToolkitAPI
   02/06/2018: 10:15:01 Link R1 setting changed to   0.69 by Control ToolkitAPI
   02/06/2018: 10:30:01 Link R1 setting changed to   0.00 by Control ToolkitAPI
   02/06/2018: 10:30:01 Link R1 setting changed to   0.66 by Control ToolkitAPI
   02/06/2018: 10:45:01 Link R1 setting changed to   0.00 by Control ToolkitAPI
   02/06/2018: 10:45:01 Link R1 setting changed to   0.62 by Control ToolkitAPI
   02/06/2018: 11:00:01 Link R1 setting changed to   0.00 by Control ToolkitAPI
   02/06/2018: 11:00:01 Link R1 setting changed to   0.59 by Control ToolkitAPI
   02/06/2018: 11:15:01 Link R1 setting changed to   0.00 by Control ToolkitAPI
   02/06/2018: 11:15:01 Link R1 setting changed to   0.60 by Control ToolkitAPI
   02/06/2018: 11:30:01 Link R1 setting changed to   0.00 by Control ToolkitAPI
   02/06/2018: 11:30:01 Link R1 setting changed to   0.60 by Control ToolkitAPI
   02/06/2018: 11:45:01 Link R1 setting changed to   0.00 by Control ToolkitAPI
   02/06/2018: 11:45:01 Link R1 setting changed to   0.60 by Control ToolkitAPI
   02/06/2018: 12:00:01 Link R1 setting changed to   0.00 by Control ToolkitAPI
   02/06/2018: 12:00:01 Link R1 setting changed to   0.60 by Control ToolkitAPI
   02/06/2018: 12:15:01 Link R1 setting changed to   0.00 by Control ToolkitAPI
   02/06/2018: 12:15:01 Link R1 setting changed to   0.60 by Control ToolkitAPI
   02/06/2018: 12:30:01 Link R1 setting changed to   0.00 by Control ToolkitAPI
   02/06/2018: 12:30:01 Link R1 setting changed to   0.60 by Control ToolkitAPI
   02/06/2018: 12:45:01 Link R1 setting changed to   0.00 by Control ToolkitAPI
   02/06/2018: 12:45:01 Link R1 setting changed to   0.63 by Control ToolkitAPI
   02/06/2018: 13:00:01 Link R1 setting changed to   0.00 by Control ToolkitAPI
   02/06/2018: 13:00:01 Link R1 setting changed to   0.65 by Control ToolkitAPI
   02/06/2018: 13:15:01 Link R1 setting changed to   0.00 by Control ToolkitAPI
   02/06/2018: 13:15:01 Link R1 setting changed to   0.65 by Control ToolkitAPI
   02/06/2018: 13:30:01 Link R1 setting changed to   0.00 by Control ToolkitAPI
   02/06/2018: 13:30:01 Link R1 setting changed to   0.65 by Control ToolkitAPI
   02/06/2018: 13:45:01 Link R1 setting changed to   0.00 by Control ToolkitAPI
   02/06/2018: 13:45:01 Link R1 setting changed to   0.65 by Control ToolkitAPI
   02/06/2018: 14:00:01 Link R1 setting changed to   0.00 by Control ToolkitAPI
   02/06/2018: 14:00:01 Link R1 setting changed to   0.65 by Control ToolkitAPI
   02/06/2018: 14:15:01 Link R1 setting changed to   0.00 by Control ToolkitAPI
   02/06/2018: 14:15:01 Link R1 setting changed to   0.64 by Control ToolkitAPI
   02/06/2018: 14:30:01 Link R1 setting changed to   0.00 by Control ToolkitAPI
   02/06/2018: 14:30:01 Link R1 setting changed to   0.64 by Control ToolkitAPI
   02/06/2018: 14:45:01 Link R1 setting changed to   0.00 by Control ToolkitAPI
   02/06/2018: 14:45:01 Link R1 setting changed to   0.64 by Control ToolkitAPI
   02/06/2018: 15:00:01 Link R1 setting changed to   0.00 by Control ToolkitAPI
   02/06/2018: 15:00:01 Link R1 setting changed to   0.63 by Control ToolkitAPI
   02/06/2018: 15:15:01 Link R1 setting changed to   0.00 by Control ToolkitAPI
   02/06/2018: 15:15:01 Link R1 setting changed to   0.63 by Control ToolkitAPI
   02/06/2018: 15:30:01 Link R1 setting changed to   0.00 by Control ToolkitAPI
   02/06/2018: 15:30:01 Link R1 setting changed to   0.63 by Control ToolkitAPI
   02/06/2018: 15:45:01 Link R1 setting changed to   0.00 by Control ToolkitAPI
   02/06/2018: 15:45:01 Link R1 setting changed to   0.62 by Control ToolkitAPI
   02/06/2018: 16:00:01 Link R1 setting changed to   0.00 by Control ToolkitAPI
   02/06/2018: 16:00:01 Link R1 setting changed to   0.62 by Control ToolkitAPI
   02/06/2018: 16:15:01 Link R1 setting changed to   0.00 by Control ToolkitAPI
   02/06/2018: 16:15:01 Link R1 setting changed to   0.61 by Control ToolkitAPI
   02/06/2018: 16:30:01 Link R1 setting changed to   0.00 by Control ToolkitAPI
   02/06/2018: 16:30:01 Link R1 setting changed to   0.61 by Control ToolkitAPI
   02/06/2018: 16:45:01 Link R1 setting changed to   0.00 by Control ToolkitAPI
   02/06/2018: 16:45:01 Link R1 setting changed to   0.61 by Control ToolkitAPI
   02/06/2018: 17:00:01 Link R1 setting changed to   0.00 by Control ToolkitAPI
   02/06/2018: 17:00:01 Link R1 setting changed to   0.60 by Control ToolkitAPI
   02/06/2018: 17:15:01 Link R1 setting changed to   0.00 by Control ToolkitAPI
   02/06/2018: 17:15:01 Link R1 setting changed to   0.60 by Control ToolkitAPI
   02/06/2018: 17:30:01 Link R1 setting changed to   0.00 by Control ToolkitAPI
   02/06/2018: 17:30:01 Link R1 setting changed to   0.60 by Control ToolkitAPI
   02/06/2018: 17:45:01 Link R1 setting changed to   0.00 by Control ToolkitAPI
   02/06/2018: 17:45:01 Link R1 setting changed to   0.59 by Control ToolkitAPI
   02/06/2018: 18:00:01 Link R1 setting changed to   0.00 by Control ToolkitAPI
   02/06/2018: 18:00:01 Link R1 setting changed to   0.59 by Control ToolkitAPI
   02/06/2018: 18:15:01 Link R1 setting changed to   0.00 by Control ToolkitAPI
   02/06/2018: 18:15:01 Link R1 setting changed to   0.58 by Control ToolkitAPI
   02/06/2018: 18:30:01 Link R1 setting changed to   0.00 by Control ToolkitAPI
   02/06/2018: 18:30:01 Link R1 setting changed to   0.58 by Control ToolkitAPI
   02/06/2018: 18:45:01 Link R1 setting changed to   0.00 by Control ToolkitAPI
   02/06/2018: 18:45:01 Link R1 setting changed to   0.58 by Control ToolkitAPI
   02/06/2018: 19:00:01 Link R1 setting changed to   0.00 by Control ToolkitAPI
   02/06/2018: 19:00:01 Link R1 setting changed to   0.57 by Control ToolkitAPI
   02/06/2018: 19:15:07 Link R1 setting changed to   0.00 by Control ToolkitAPI
   02/06/2018: 19:15:07 Link R1 setting changed to   0.57 by Control ToolkitAPI
   02/06/2018: 19:30:07 Link R1 setting changed to   0.00 by Control ToolkitAPI
   02/06/2018: 19:30:07 Link R1 setting changed to   0.57 by Control ToolkitAPI
   02/06/2018: 19:45:07 Link R1 setting changed to   0.00 by Control ToolkitAPI
   02/06/2018: 19:45:07 Link R1 setting changed to   0.56 by Control ToolkitAPI
   02/06/2018: 20:00:07 Link R1 setting changed to   0.00 by Control ToolkitAPI
   02/06/2018: 20:00:07 Link R1 setting changed to   0.56 by Control ToolkitAPI
   02/06/2018: 20:15:07 Link R1 setting changed to   0.00 by Control ToolkitAPI
   02/06/2018: 20:15:07 Link R1 setting changed to   0.55 by Control ToolkitAPI
   02/06/2018: 20:30:07 Link R1 setting changed to   0.00 by Control ToolkitAPI
   02/06/2018: 20:30:07 Link R1 setting changed to   0.55 by Control ToolkitAPI
   02/06/2018: 20:45:07 Link R1 setting changed to   0.00 by Control ToolkitAPI
   02/06/2018: 20:45:07 Link R1 setting changed to   0.55 by Control ToolkitAPI
   02/06/2018: 21:00:07 Link R1 setting changed to   0.00 by Control ToolkitAPI
   02/06/2018: 21:00:07 Link R1 setting changed to   0.54 by Control ToolkitAPI
   02/06/2018: 21:15:07 Link R1 setting changed to   0.00 by Control ToolkitAPI
   02/06/2018: 21:15:07 Link R1 setting changed to   0.54 by Control ToolkitAPI
   02/06/2018: 21:30:07 Link R1 setting changed to   0.00 by Control ToolkitAPI
   02/06/2018: 21:30:07 Link R1 setting changed to   0.54 by Control ToolkitAPI
   02/06/2018: 21:45:07 Link R1 setting changed to   0.00 by Control ToolkitAPI
   02/06/2018: 21:45:07 Link R1 setting changed to   0.53 by Control ToolkitAPI
   02/06/2018: 22:00:07 Link R1 setting changed to   0.00 by Control ToolkitAPI
   02/06/2018: 22:00:07 Link R1 setting changed to   0.53 by Control ToolkitAPI
   02/06/2018: 22:15:07 Link R1 setting changed to   0.00 by Control ToolkitAPI
   02/06/2018: 22:15:07 Link R1 setting changed to   0.53 by Control ToolkitAPI
   02/06/2018: 22:30:07 Link R1 setting changed to   0.00 by Control ToolkitAPI
   02/06/2018: 22:30:07 Link R1 setting changed to   0.52 by Control ToolkitAPI
   02/06/2018: 22:45:07 Link R1 setting changed to   0.00 by Control ToolkitAPI
   02/06/2018: 22:45:07 Link R1 setting changed to   0.52 by Control ToolkitAPI
   02/06/2018: 23:00:07 Link R1 setting changed to   0.00 by Control ToolkitAPI
   02/06/2018: 23:00:07 Link R1 setting changed to   0.52 by Control To