
  EPA STORM WATER MANAGEMENT MODEL - VERSION 5.1 (Build 5.2.0.dev3)
  --------------------------------------------------------------

  
  *********************************************************
  NOTE: The summary statistics displayed in this report are
  based on results found at every computational time step,  
  not just on results from each reporting time step.
  *********************************************************
  
  ****************
  Analysis Options
  ****************
  Flow Units ............... CFS
  Process Models:
    Rainfall/Runoff ........ YES
    RDII ................... NO
    Snowmelt ............... NO
    Groundwater ............ NO
    Flow Routing ........... YES
    Ponding Allowed ........ NO
    Water Quality .......... NO
  Infiltration Method ...... MODIFIED_GREEN_AMPT
  Flow Routing Method ...... DYNWAVE
  Starting Date ............ 02/06/2018 00:00:00
  Ending Date .............. 02/07/2018 00:00:00
  Antecedent Dry Days ...... 0.0
  Report Time Step ......... 00:01:00
  Wet Time Step ............ 00:05:00
  Dry Time Step ............ 01:00:00
  Routing Time Step ........ 10.00 sec
  Variable Time Step ....... YES
  Maximum Trials ........... 8
  Number of Threads ........ 1
  Head Tolerance ........... 0.005000 ft
  
  
  *********************
  Control Actions Taken
  *********************
   02/06/2018: 00:00:00 Link R1 setting changed to   0.00 by Control ToolkitAPI
   02/06/2018: 00:00:00 Link R2 setting changed to   0.00 by Control ToolkitAPI
   02/06/2018: 00:00:00 Link R1 setting changed to   0.85 by Control ToolkitAPI
   02/06/2018: 00:00:00 Link R2 setting changed to   1.00 by Control ToolkitAPI
   02/06/2018: 00:15:01 Link R1 setting changed to   0.86 by Control ToolkitAPI
   02/06/2018: 00:15:01 Link R2 setting changed to   1.00 by Control ToolkitAPI
   02/06/2018: 00:30:01 Link R1 setting changed to   0.83 by Control ToolkitAPI
   02/06/2018: 00:30:01 Link R2 setting changed to   1.00 by Control ToolkitAPI
   02/06/2018: 00:45:01 Link R1 setting changed to   0.78 by Control ToolkitAPI
   02/06/2018: 00:45:01 Link R2 setting changed to   1.00 by Control ToolkitAPI
   02/06/2018: 01:00:01 Link R1 setting changed to   0.74 by Control ToolkitAPI
   02/06/2018: 01:00:01 Link R2 setting changed to   1.00 by Control ToolkitAPI
   02/06/2018: 01:15:01 Link R1 setting changed to   0.81 by Control ToolkitAPI
   02/06/2018: 01:15:01 Link R2 setting changed to   1.00 by Control ToolkitAPI
   02/06/2018: 01:30:01 Link R1 setting changed to   0.81 by Control ToolkitAPI
   02/06/2018: 01:30:01 Link R2 setting changed to   1.00 by Control ToolkitAPI
   02/06/2018: 01:45:01 Link R1 setting changed to   0.82 by Control ToolkitAPI
   02/06/2018: 01:45:01 Link R2 setting changed to   1.00 by Control ToolkitAPI
   02/06/2018: 02:00:01 Link R1 setting changed to   0.84 by Control ToolkitAPI
   02/06/2018: 02:00:01 Link R2 setting changed to   1.00 by Control ToolkitAPI
   02/06/2018: 02:15:01 Link R1 setting changed to   0.82 by Control ToolkitAPI
   02/06/2018: 02:15:01 Link R2 setting changed to   1.00 by Control ToolkitAPI
   02/06/2018: 02:30:01 Link R1 setting changed to   0.86 by Control ToolkitAPI
   02/06/2018: 02:30:01 Link R2 setting changed to   1.00 by Control ToolkitAPI
   02/06/2018: 02:45:01 Link R1 setting changed to   0.85 by Control ToolkitAPI
   02/06/2018: 02:45:01 Link R2 setting changed to   1.00 by Control ToolkitAPI
   02/06/2018: 03:00:01 Link R1 setting changed to   0.78 by Control ToolkitAPI
   02/06/2018: 03:00:01 Link R2 setting changed to   1.00 by Control ToolkitAPI
   02/06/2018: 03:15:01 Link R1 setting changed to   0.83 by Control ToolkitAPI
   02/06/2018: 03:15:01 Link R2 setting changed to   1.00 by Control ToolkitAPI
   02/06/2018: 03:30:01 Link R1 setting changed to   0.81 by Control ToolkitAPI
   02/06/2018: 03:30:01 Link R2 setting changed to   1.00 by Control ToolkitAPI
   02/06/2018: 03:45:01 Link R1 setting changed to   0.81 by Control ToolkitAPI
   02/06/2018: 03:45:01 Link R2 setting changed to   1.00 by Control ToolkitAPI
   02/06/2018: 04:00:01 Link R1 setting changed to   0.77 by Control ToolkitAPI
   02/06/2018: 04:00:01 Link R2 setting changed to   1.00 by Control ToolkitAPI
   02/06/2018: 04:15:01 Link R1 setting changed to   0.74 by Control ToolkitAPI
   02/06/2018: 04:15:01 Link R2 setting changed to   1.00 by Control ToolkitAPI
   02/06/2018: 04:30:01 Link R1 setting changed to   0.75 by Control ToolkitAPI
   02/06/2018: 04:30:01 Link R2 setting changed to   1.00 by Control ToolkitAPI
   02/06/2018: 04:45:01 Link R1 setting changed to   0.77 by Control ToolkitAPI
   02/06/2018: 04:45:01 Link R2 setting changed to   1.00 by Control ToolkitAPI
   02/06/2018: 05:00:01 Link R1 setting changed to   0.76 by Control ToolkitAPI
   02/06/2018: 05:00:01 Link R2 setting changed to   1.00 by Control ToolkitAPI
   02/06/2018: 05:15:01 Link R1 setting changed to   0.74 by Control ToolkitAPI
   02/06/2018: 05:15:01 Link R2 setting changed to   1.00 by Control ToolkitAPI
   02/06/2018: 05:30:01 Link R1 setting changed to   0.79 by Control ToolkitAPI
   02/06/2018: 05:30:01 Link R2 setting changed to   1.00 by Control ToolkitAPI
   02/06/2018: 05:45:09 Link R1 setting changed to   0.76 by Control ToolkitAPI
   02/06/2018: 05:45:09 Link R2 setting changed to   1.00 by Control ToolkitAPI
   02/06/2018: 06:00:09 Link R1 setting changed to   0.75 by Control ToolkitAPI
   02/06/2018: 06:00:09 Link R2 setting changed to   1.00 by Control ToolkitAPI
   02/06/2018: 06:15:09 Link R1 setting changed to   0.72 by Control ToolkitAPI
   02/06/2018: 06:15:09 Link R2 setting changed to   1.00 by Control ToolkitAPI
   02/06/2018: 06:30:09 Link R1 setting changed to   0.72 by Control ToolkitAPI
   02/06/2018: 06:30:09 Link R2 setting changed to   1.00 by Control ToolkitAPI
   02/06/2018: 06:45:09 Link R1 setting changed to   0.73 by Control ToolkitAPI
   02/06/2018: 06:45:09 Link R2 setting changed to   1.00 by Control ToolkitAPI
   02/06/2018: 07:00:09 Link R1 setting changed to   0.76 by Control ToolkitAPI
   02/06/2018: 07:00:09 Link R2 setting changed to   1.00 by Control ToolkitAPI
   02/06/2018: 07:15:09 Link R1 setting changed to   0.72 by Control ToolkitAPI
   02/06/2018: 07:15:09 Link R2 setting changed to   1.00 by Control ToolkitAPI
   02/06/2018: 07:30:09 Link R1 setting changed to   0.74 by Control ToolkitAPI
   02/06/2018: 07:30:09 Link R2 setting changed to   1.00 by Control ToolkitAPI
   02/06/2018: 07:45:09 Link R1 setting changed to   0.69 by Control ToolkitAPI
   02/06/2018: 07:45:09 Link R2 setting changed to   1.00 by Control ToolkitAPI
   02/06/2018: 08:00:09 Link R1 setting changed to   0.71 by Control ToolkitAPI
   02/06/2018: 08:00:09 Link R2 setting changed to   1.00 by Control ToolkitAPI
   02/06/2018: 08:15:09 Link R1 setting changed to   0.68 by Control ToolkitAPI
   02/06/2018: 08:15:09 Link R2 setting changed to   1.00 by Control ToolkitAPI
   02/06/2018: 08:30:09 Link R1 setting changed to   0.67 by Control ToolkitAPI
   02/06/2018: 08:30:09 Link R2 setting changed to   1.00 by Control ToolkitAPI
   02/06/2018: 08:45:09 Link R1 setting changed to   0.69 by Control ToolkitAPI
   02/06/2018: 08:45:09 Link R2 setting changed to   1.00 by Control ToolkitAPI
   02/06/2018: 09:00:09 Link R1 setting changed to   0.67 by Control ToolkitAPI
   02/06/2018: 09:00:09 Link R2 setting changed to   1.00 by Control ToolkitAPI
   02/06/2018: 09:15:09 Link R1 setting changed to   0.70 by Control ToolkitAPI
   02/06/2018: 09:15:09 Link R2 setting changed to   1.00 by Control ToolkitAPI
   02/06/2018: 09:30:09 Link R1 setting changed to   0.75 by Control ToolkitAPI
   02/06/2018: 09:30:09 Link R2 setting changed to   1.00 by Control ToolkitAPI
   02/06/2018: 09:45:09 Link R1 setting changed to   0.72 by Control ToolkitAPI
   02/06/2018: 09:45:09 Link R2 setting changed to   1.00 by Control ToolkitAPI
   02/06/2018: 10:00:09 Link R1 setting changed to   0.74 by Control ToolkitAPI
   02/06/2018: 10:00:09 Link R2 setting changed to   1.00 by Control ToolkitAPI
   02/06/2018: 10:15:09 Link R1 setting changed to   0.76 by Control ToolkitAPI
   02/06/2018: 10:15:09 Link R2 setting changed to   1.00 by Control ToolkitAPI
   02/06/2018: 10:30:09 Link R1 setting changed to   0.80 by Control ToolkitAPI
   02/06/2018: 10:30:09 Link R2 setting changed to   1.00 by Control ToolkitAPI
   02/06/2018: 10:45:09 Link R1 setting changed to   0.78 by Control ToolkitAPI
   02/06/2018: 10:45:09 Link R2 setting changed to   1.00 by Control ToolkitAPI
   02/06/2018: 11:00:09 Link R1 setting changed to   0.78 by Control ToolkitAPI
   02/06/2018: 11:00:09 Link R2 setting changed to   1.00 by Control ToolkitAPI
   02/06/2018: 11:15:09 Link R1 setting changed to   0.77 by Control ToolkitAPI
   02/06/2018: 11:15:09 Link R2 setting changed to   1.00 by Control ToolkitAPI
   02/06/2018: 11:30:09 Link R1 setting changed to   0.81 by Control ToolkitAPI
   02/06/2018: 11:30:09 Link R2 setting changed to   1.00 by Control ToolkitAPI
   02/06/2018: 11:45:09 Link R1 setting changed to   0.85 by Control ToolkitAPI
   02/06/2018: 11:45:09 Link R2 setting changed to   1.00 by Control ToolkitAPI
   02/06/2018: 12:00:09 Link R1 setting changed to   0.80 by Control ToolkitAPI
   02/06/2018: 12:00:09 Link R2 setting changed to   1.00 by Control ToolkitAPI
   02/06/2018: 12:15:09 Link R1 setting changed to   0.81 by Control ToolkitAPI
   02/06/2018: 12:15:09 Link R2 setting changed to   1.00 by Control ToolkitAPI
   02/06/2018: 12:30:09 Link R1 setting changed to   0.82 by Control ToolkitAPI
   02/06/2018: 12:30:09 Link R2 setting changed to   1.00 by Control ToolkitAPI
   02/06/2018: 12:45:09 Link R1 setting changed to   0.84 by Control ToolkitAPI
   02/06/2018: 12:45:09 Link R2 setting changed to   1.00 by Control ToolkitAPI
   02/06/2018: 13:00:09 Link R1 setting changed to   0.79 by Control ToolkitAPI
   02/06/2018: 13:00:09 Link R2 setting changed to   1.00 by Control ToolkitAPI
   02/06/2018: 13:15:09 Link R1 setting changed to   0.76 by Control ToolkitAPI
   02/06/2018: 13:15:09 Link R2 setting changed to   1.00 by Control ToolkitAPI
   02/06/2018: 13:30:09 Link R1 setting changed to   0.77 by Control ToolkitAPI
   02/06/2018: 13:30:09 Link R2 setting changed to   1.00 by Control ToolkitAPI
   02/06/2018: 13:45:09 Link R1 setting changed to   0.76 by Control ToolkitAPI
   02/06/2018: 13:45:09 Link R2 setting changed to   1.00 by Control ToolkitAPI
   02/06/2018: 14:00:09 Link R1 setting changed to   0.79 by Control ToolkitAPI
   02/06/2018: 14:00:09 Link R2 setting changed to   1.00 by Control ToolkitAPI
   02/06/2018: 14:15:09 Link R1 setting changed to   0.72 by Control ToolkitAPI
   02/06/2018: 14:15:09 Link R2 setting changed to   1.00 by Control ToolkitAPI
   02/06/2018: 14:30:09 Link R1 setting changed to   0.73 by Control ToolkitAPI
   02/06/2018: 14:30:09 Link R2 setting changed to   1.00 by Control ToolkitAPI
   02/06/2018: 14:45:09 Link R1 setting changed to   0.75 by Control ToolkitAPI
   02/06/2018: 14:45:09 Link R2 setting changed to   1.00 by Control ToolkitAPI
   02/06/2018: 15:00:09 Link R1 setting changed to   0.72 by Control ToolkitAPI
   02/06/2018: 15:00:09 Link R2 setting changed to   1.00 by Control ToolkitAPI
   02/06/2018: 15:15:09 Link R1 setting changed to   0.72 by Control ToolkitAPI
   02/06/2018: 15:15:09 Link R2 setting changed to   1.00 by Control ToolkitAPI
   02/06/2018: 15:30:09 Link R1 setting changed to   0.68 by Control ToolkitAPI
   02/06/2018: 15:30:09 Link R2 setting changed to   1.00 by Control ToolkitAPI
   02/06/2018: 15:45:09 Link R1 setting changed to   0.66 by Control ToolkitAPI
   02/06/2018: 15:45:09 Link R2 setting changed to   1.00 by Control ToolkitAPI
   02/06/2018: 16:00:09 Link R1 setting changed to   0.61 by Control ToolkitAPI
   02/06/2018: 16:00:09 Link R2 setting changed to   1.00 by Control ToolkitAPI
   02/06/2018: 16:15:09 Link R1 setting changed to   0.65 by Control ToolkitAPI
   02/06/2018: 16:15:09 Link R2 setting changed to   1.00 by Control ToolkitAPI
   02/06/2018: 16:30:09 Link R1 setting changed to   0.72 by Control ToolkitAPI
   02/06/2018: 16:30:09 Link R2 setting changed to   1.00 by Control ToolkitAPI
   02/06/2018: 16:45:09 Link R1 setting changed to   0.73 by Control ToolkitAPI
   02/06/2018: 16:45:09 Link R2 setting changed to   1.00 by Control ToolkitAPI
   02/06/2018: 17:00:09 Link R1 setting changed to   0.67 by Control ToolkitAPI
   02/06/2018: 17:00:09 Link R2 setting changed to   1.00 by Control ToolkitAPI
   02/06/2018: 17:15:09 Link R1 setting changed to   0.66 by Control ToolkitAPI
   02/06/2018: 17:15:09 Link R2 setting changed to   1.00 by Control ToolkitAPI
   02/06/2018: 17:30:09 Link R1 setting changed to   0.63 by Control ToolkitAPI
   02/06/2018: 17:30:09 Link R2 setting changed to   1.00 by Control ToolkitAPI
   02/06/2018: 17:45:09 Link R1 setting changed to   0.62 by Control ToolkitAPI
   02/06/2018: 17:45:09 Link R2 setting changed to   1.00 by Control ToolkitAPI
   02/06/2018: 18:00:09 Link R1 setting changed to   0.63 by Control ToolkitAPI
   02/06/2018: 18:00:09 Link R2 setting changed to   1.00 by Control ToolkitAPI
   02/06/2018: 18:15:09 Link R1 setting changed to   0.64 by Control ToolkitAPI
   02/06/2018: 18:15:09 Link R2 setting changed to   1.00 by Control ToolkitAPI
   02/06/2018: 18:30:09 Link R1 setting changed to   0.63 by Control ToolkitAPI
   02/06/2018: 18:30:09 Link R2 setting changed to   1.00 by Control ToolkitAPI
   02/06/2018: 18:45:09 Link R1 setting changed to   0.61 by Control ToolkitAPI
   02/06/2018: 18:45:09 Link R2 setting changed to   1.00 by Control ToolkitAPI
   02/06/2018: 19:00:09 Link R1 setting changed to   0.65 by Control ToolkitAPI
   02/06/2018: 19:00:09 Link R2 setting changed to   1.00 by Control ToolkitAPI
   02/06/2018: 19:15:09 Link R1 setting changed to   0.63 by Control ToolkitAPI
   02/06/2018: 19:15:09 Link R2 setting changed to   1.00 by Control ToolkitAPI
   02/06/2018: 19:30:09 Link R1 setting changed to   0.66 by Control ToolkitAPI
   02/06/2018: 19:30:09 Link R2 setting changed to   1.00 by Control ToolkitAPI
   02/06/2018: 19:45:09 Link R1 setting changed to   0.64 by Control ToolkitAPI
   02/06/2018: 19:45:09 Link R2 setting changed to   1.00 by Control ToolkitAPI
   02/06/2018: 20:00:09 Link R1 setting changed to   0.64 by Control ToolkitAPI
   02/06/2018: 20:00:09 Link R2 setting changed to   1.00 by Control ToolkitAPI
   02/06/2018: 20:15:09 Link R1 setting changed to   0.62 by Control ToolkitAPI
   02/06/2018: 20:15:09 Link R2 setting changed to   1.00 by Control ToolkitAPI
   02/06/2018: 20:30:09 Link R1 setting changed to   0.66 by Control ToolkitAPI
   02/06/2018: 20:30:09 Link R2 setting changed to   1.00 by Control ToolkitAPI
   02/06/2018: 20:45:09 Link R1 setting changed to   0.65 by Control ToolkitAPI
   02/06/2018: 20:45:09 Link R2 setting changed to   1.00 by Control ToolkitAPI
   02/06/2018: 21:00:09 Link R1 setting changed to   0.69 by Control ToolkitAPI
   02/06/2018: 21:00:09 Link R2 setting changed to   1.00 by Control ToolkitAPI
   02/06/2018: 21:15:09 Link R1 setting changed to   0.70 by Control ToolkitAPI
   02/06/2018: 21:15:09 Link R2 setting changed to   1.00 by Control ToolkitAPI
   02/06/2018: 21:30:09 Link R1 setting changed to   0.75 by Control ToolkitAPI
   02/06/2018: 21:30:09 Link R2 setting changed to   1.00 by Control ToolkitAPI
   02/06/2018: 21:45:09 Link R1 setting changed to   0.76 by Control ToolkitAPI
   02/06/2018: 21:45:09 Link R2 setting changed to   1.00 by Control ToolkitAPI
   02/06/2018: 22:00:09 Link R1 setting changed to   0.71 by Control ToolkitAPI
   02/06/2018: 22:00:09 Link R2 setting changed to   1.00 by Control ToolkitAPI
   02/06/2018: 22:15:09 Link R1 setting changed to   0.75 by Control ToolkitAPI
   02/06/2018: 22:15:09 Link R2 setting changed to   1.00 by Control ToolkitAPI
   02/06/2018: 22:30:09 Link R1 setting changed to   0.74 by Control ToolkitAPI
   02/06/2018: 22:30:09 Link R2 setting changed to   1.00 by Control ToolkitAPI
   02/06/2018: 22:45:09 Link R1 setting changed to   0.73 by Control ToolkitAPI
   02/06/2018: 22:45:09 Link R2 setting changed to   1.00 by Control ToolkitAPI
   02/06/2018: 23:00:09 Link R1 setting changed to   0.71 by Control ToolkitAPI
   02/06/2018: 23:00:09 Link R2 setting changed to   1.00 by Control ToolkitAPI
   02/06/2018: 23:15:09 Link R1 setting changed to   0.74 by Control ToolkitAPI
   02/06/2018: 23:15:09 Link R2 setting changed to   1.00 by Control ToolkitAPI
   02/06/2018: 23:30:09 Link R1 setting changed to   0.74 by Control ToolkitAPI
   02/06/2018: 23:30:09 Link R2 setting changed to   1.00 by Control ToolkitAPI

  
  ********************
  Subcatchment Results
  ********************
  
  <<< Subcatchment S1 >>>
  ---------------------------------------------------
  Date        Time        Precip.    Losses    Runoff
                            in/hr     in/hr       CFS
  ---------------------------------------------------
   02/06/2018 00:01:00      0.000     0.000    0.0000
   02/06/2018 00:02:00      0.000     0.000    0.0000
   02/06/2018 00:03:00      0.000     0.000    0.0000
   02/06/2018 00:04:00      0.000     0.000    0.0000
   02/06/2018 00:05:00      0.000     0.000    0.0000
   02/06/2018 00:06:00      0.083     0.058    0.0000
   02/06/2018 00:07:00      0.083     0.058    0.0000
   02/06/2018 00:08:00      0.083     0.058    0.0000
   02/06/2018 00:09:00      0.083     0.058    0.0000
   02/06/2018 00:10:00      0.083     0.058    0.0000
   02/06/2018 00:11:00      0.083     0.058    0.0000
   02/06/2018 00:12:00      0.084     0.059    0.0000
   02/06/2018 00:13:00      0.084     0.059    0.0000
   02/06/2018 00:14:00      0.084     0.059    0.0000
   02/06/2018 00:15:00      0.084     0.059    0.0000
   02/06/2018 00:16:00      0.084     0.059    0.0000
   02/06/2018 00:17:00      0.084     0.059    0.0000
   02/06/2018 00:18:00      0.085     0.059    0.0000
   02/06/2018 00:19:00      0.085     0.059    0.0706
   02/06/2018 00:20:00      0.085     0.059    0.0791
   02/06/2018 00:21:00      0.085     0.059    0.0876
   02/06/2018 00:22:00      0.085     0.059    0.0960
   02/06/2018 00:23:00      0.085     0.059    0.1045
   02/06/2018 00:24:00      0.086     0.060    0.1133
   02/06/2018 00:25:00      0.086     0.060    0.1222
   02/06/2018 00:26:00      0.086     0.060    0.1312
   02/06/2018 00:27:00      0.086     0.060    0.1401
   02/06/2018 00:28:00      0.086     0.060    0.1491
   02/06/2018 00:29:00      0.086     0.060    0.1581
   02/06/2018 00:30:00      0.087     0.061    0.1669
   02/06/2018 00:31:00      0.087     0.061    0.1756
   02/06/2018 00:32:00      0.087     0.061    0.1843
   02/06/2018 00:33:00      0.087     0.061    0.1929
   02/06/2018 00:34:00      0.087     0.061    0.2016
   02/06/2018 00:35:00      0.087     0.061    0.2103
   02/06/2018 00:36:00      0.087     0.061    0.2186
   02/06/2018 00:37:00      0.087     0.061    0.2265
   02/06/2018 00:38:00      0.087     0.061    0.2345
   02/06/2018 00:39:00      0.087     0.061    0.2424
   02/06/2018 00:40:00      0.087     0.061    0.2503
   02/06/2018 00:41:00      0.087     0.061    0.2583
   02/06/2018 00:42:00      0.088     0.062    0.2679
   02/06/2018 00:43:00      0.088     0.062    0.2872
   02/06/2018 00:44:00      0.088     0.062    0.3066
   02/06/2018 00:45:00      0.088     0.062    0.3260
   02/06/2018 00:46:00      0.088     0.062    0.3454
   02/06/2018 00:47:00      0.088     0.062    0.3648
   02/06/2018 00:48:00      0.089     0.062    0.3902
   02/06/2018 00:49:00      0.089     0.062    0.4195
   02/06/2018 00:50:00      0.089     0.062    0.4488
   02/06/2018 00:51:00      0.089     0.062    0.4781
   02/06/2018 00:52:00      0.089     0.062    0.5074
   02/06/2018 00:53:00      0.089     0.062    0.5368
   02/06/2018 00:54:00      0.090     0.063    0.5685
   02/06/2018 00:55:00      0.090     0.063    0.6017
   02/06/2018 00:56:00      0.090     0.063    0.6350
   02/06/2018 00:57:00      0.090     0.063    0.6682
   02/06/2018 00:58:00      0.090     0.063    0.7015
   02/06/2018 00:59:00      0.090     0.063    0.7347
   02/06/2018 01:00:00      0.091     0.064    0.7683
   02/06/2018 01:01:00      0.091     0.064    0.8017
   02/06/2018 01:02:00      0.091     0.064    0.8352
   02/06/2018 01:03:00      0.091     0.064    0.8686
   02/06/2018 01:04:00      0.091     0.064    0.9021
   02/06/2018 01:05:00      0.091     0.064    0.9355
   02/06/2018 01:06:00      0.092     0.064    0.9678
   02/06/2018 01:07:00      0.092     0.064    0.9992
   02/06/2018 01:08:00      0.092     0.064    1.0305
   02/06/2018 01:09:00      0.092     0.064    1.0618
   02/06/2018 01:10:00      0.092     0.064    1.0932
   02/06/2018 01:11:00      0.092     0.064    1.1245
   02/06/2018 01:12:00      0.093     0.065    1.1539
   02/06/2018 01:13:00      0.093     0.065    1.1819
   02/06/2018 01:14:00      0.093     0.065    1.2099
   02/06/2018 01:15:00      0.093     0.065    1.2379
   02/06/2018 01:16:00      0.093     0.065    1.2659
   02/06/2018 01:17:00      0.093     0.065    1.2939
   02/06/2018 01:18:00      0.094     0.066    1.3197
   02/06/2018 01:19:00      0.094     0.066    1.3439
   02/06/2018 01:20:00      0.094     0.066    1.3682
   02/06/2018 01:21:00      0.094     0.066    1.3924
   02/06/2018 01:22:00      0.094     0.066    1.4166
   02/06/2018 01:23:00      0.094     0.066    1.4409
   02/06/2018 01:24:00      0.095     0.066    1.4629
   02/06/2018 01:25:00      0.095     0.066    1.4834
   02/06/2018 01:26:00      0.095     0.066    1.5040
   02/06/2018 01:27:00      0.095     0.066    1.5245
   02/06/2018 01:28:00      0.095     0.066    1.5451
   02/06/2018 01:29:00      0.095     0.066    1.5657
   02/06/2018 01:30:00      0.096     0.067    1.5841
   02/06/2018 01:31:00      0.096     0.067    1.6013
   02/06/2018 01:32:00      0.096     0.067    1.6186
   02/06/2018 01:33:00      0.096     0.067    1.6358
   02/06/2018 01:34:00      0.096     0.067    1.6530
   02/06/2018 01:35:00      0.096     0.067    1.6703
   02/06/2018 01:36:00      0.097     0.068    1.6856
   02/06/2018 01:37:00      0.097     0.068    1.6999
   02/06/2018 01:38:00      0.097     0.068    1.7143
   02/06/2018 01:39:00      0.097     0.068    1.7287
   02/06/2018 01:40:00      0.097     0.068    1.7430
   02/06/2018 01:41:00      0.097     0.068    1.7574
   02/06/2018 01:42:00      0.098     0.068    1.7701
   02/06/2018 01:43:00      0.098     0.068    1.7821
   02/06/2018 01:44:00      0.098     0.068    1.7940
   02/06/2018 01:45:00      0.098     0.068    1.8060
   02/06/2018 01:46:00      0.098     0.068    1.8180
   02/06/2018 01:47:00      0.098     0.068    1.8300
   02/06/2018 01:48:00      0.098     0.069    1.8405
   02/06/2018 01:49:00      0.098     0.069    1.8506
   02/06/2018 01:50:00      0.098     0.069    1.8606
   02/06/2018 01:51:00      0.098     0.069    1.8707
   02/06/2018 01:52:00      0.098     0.069    1.8807
   02/06/2018 01:53:00      0.098     0.069    1.8908
   02/06/2018 01:54:00      0.099     0.070    1.8996
   02/06/2018 01:55:00      0.099     0.070    1.9081
   02/06/2018 01:56:00      0.099     0.070    1.9166
   02/06/2018 01:57:00      0.099     0.070    1.9251
   02/06/2018 01:58:00      0.099     0.070    1.9336
   02/06/2018 01:59:00      0.099     0.070    1.9421
   02/06/2018 02:00:00      0.100     0.070    1.9495
   02/06/2018 02:01:00      0.100     0.070    1.9569
   02/06/2018 02:02:00      0.100     0.070    1.9642
   02/06/2018 02:03:00      0.100     0.070    1.9715
   02/06/2018 02:04:00      0.100     0.070    1.9788
   02/06/2018 02:05:00      0.100     0.070    1.9861
   02/06/2018 02:06:00      0.103     0.072    1.9924
   02/06/2018 02:07:00      0.103     0.072    2.0004
   02/06/2018 02:08:00      0.103     0.072    2.0085
   02/06/2018 02:09:00      0.103     0.072    2.0165
   02/06/2018 02:10:00      0.103     0.072    2.0245
   02/06/2018 02:11:00      0.103     0.072    2.0325
   02/06/2018 02:12:00      0.108     0.075    2.0395
   02/06/2018 02:13:00      0.108     0.075    2.0497
   02/06/2018 02:14:00      0.108     0.075    2.0600
   02/06/2018 02:15:00      0.108     0.075    2.0702
   02/06/2018 02:16:00      0.108     0.075    2.0804
   02/06/2018 02:17:00      0.108     0.075    2.0907
   02/06/2018 02:18:00      0.112     0.079    2.0995
   02/06/2018 02:19:00      0.112     0.079    2.1115
   02/06/2018 02:20:00      0.112     0.079    2.1234
   02/06/2018 02:21:00      0.112     0.079    2.1354
   02/06/2018 02:22:00      0.112     0.079    2.1473
   02/06/2018 02:23:00      0.112     0.079    2.1593
   02/06/2018 02:24:00      0.117     0.082    2.1697
   02/06/2018 02:25:00      0.117     0.082    2.1829
   02/06/2018 02:26:00      0.117     0.082    2.1962
   02/06/2018 02:27:00      0.117     0.082    2.2095
   02/06/2018 02:28:00      0.117     0.082    2.2227
   02/06/2018 02:29:00      0.117     0.082    2.2360
   02/06/2018 02:30:00      0.121     0.085    2.2475
   02/06/2018 02:31:00      0.121     0.085    2.2618
   02/06/2018 02:32:00      0.121     0.085    2.2761
   02/06/2018 02:33:00      0.121     0.085    2.2904
   02/06/2018 02:34:00      0.121     0.085    2.3047
   02/06/2018 02:35:00      0.121     0.085    2.3190
   02/06/2018 02:36:00      0.126     0.088    2.3313
   02/06/2018 02:37:00      0.126     0.088    2.3464
   02/06/2018 02:38:00      0.126     0.088    2.3614
   02/06/2018 02:39:00      0.126     0.088    2.3765
   02/06/2018 02:40:00      0.126     0.088    2.3916
   02/06/2018 02:41:00      0.126     0.088    2.4066
   02/06/2018 02:42:00      0.130     0.091    2.4196
   02/06/2018 02:43:00      0.130     0.091    2.4353
   02/06/2018 02:44:00      0.130     0.091    2.4510
   02/06/2018 02:45:00      0.130     0.091    2.4666
   02/06/2018 02:46:00      0.130     0.091    2.4823
   02/06/2018 02:47:00      0.130     0.091    2.4979
   02/06/2018 02:48:00      0.135     0.095    2.5114
   02/06/2018 02:49:00      0.135     0.095    2.5275
   02/06/2018 02:50:00      0.135     0.095    2.5436
   02/06/2018 02:51:00      0.135     0.095    2.5597
   02/06/2018 02:52:00      0.135     0.095    2.5758
   02/06/2018 02:53:00      0.135     0.095    2.5919
   02/06/2018 02:54:00      0.140     0.098    2.6057
   02/06/2018 02:55:00      0.140     0.098    2.6222
   02/06/2018 02:56:00      0.140     0.098    2.6386
   02/06/2018 02:57:00      0.140     0.098    2.6550
   02/06/2018 02:58:00      0.140     0.098    2.6715
   02/06/2018 02:59:00      0.140     0.098    2.6879
   02/06/2018 03:00:00      0.144     0.101    2.7020
   02/06/2018 03:01:00      0.144     0.101    2.7186
   02/06/2018 03:02:00      0.144     0.101    2.7353
   02/06/2018 03:03:00      0.144     0.101    2.7520
   02/06/2018 03:04:00      0.144     0.101    2.7687
   02/06/2018 03:05:00      0.144     0.101    2.7853
   02/06/2018 03:06:00      0.146     0.103    2.7996
   02/06/2018 03:07:00      0.146     0.103    2.8141
   02/06/2018 03:08:00      0.146     0.103    2.8286
   02/06/2018 03:09:00      0.146     0.103    2.8431
   02/06/2018 03:10:00      0.146     0.103    2.8576
   02/06/2018 03:11:00      0.146     0.103    2.8721
   02/06/2018 03:12:00      0.146     0.103    2.8845
   02/06/2018 03:13:00      0.146     0.103    2.8950
   02/06/2018 03:14:00      0.146     0.103    2.9055
   02/06/2018 03:15:00      0.146     0.103    2.9161
   02/06/2018 03:16:00      0.146     0.103    2.9266
   02/06/2018 03:17:00      0.146     0.103    2.9371
   02/06/2018 03:18:00      0.146     0.103    2.9460
   02/06/2018 03:19:00      0.146     0.103    2.9536
   02/06/2018 03:20:00      0.146     0.103    2.9612
   02/06/2018 03:21:00      0.146     0.103    2.9688
   02/06/2018 03:22:00      0.146     0.103    2.9764
   02/06/2018 03:23:00      0.146     0.103    2.9840
   02/06/2018 03:24:00      0.146     0.103    2.9905
   02/06/2018 03:25:00      0.146     0.103    2.9959
   02/06/2018 03:26:00      0.146     0.103    3.0014
   02/06/2018 03:27:00      0.146     0.103    3.0069
   02/06/2018 03:28:00      0.146     0.103    3.0123
   02/06/2018 03:29:00      0.146     0.103    3.0178
   02/06/2018 03:30:00      0.146     0.103    3.0224
   02/06/2018 03:31:00      0.146     0.103    3.0263
   02/06/2018 03:32:00      0.146     0.103    3.0302
   02/06/2018 03:33:00      0.146     0.103    3.0341
   02/06/2018 03:34:00      0.146     0.103    3.0380
   02/06/2018 03:35:00      0.146     0.103    3.0419
   02/06/2018 03:36:00      0.150     0.105    3.0452
   02/06/2018 03:37:00      0.150     0.105    3.0519
   02/06/2018 03:38:00      0.150     0.105    3.0585
   02/06/2018 03:39:00      0.150     0.105    3.0651
   02/06/2018 03:40:00      0.150     0.105    3.0717
   02/06/2018 03:41:00      0.150     0.105    3.0783
   02/06/2018 03:42:00      0.157     0.110    3.0839
   02/06/2018 03:43:00      0.157     0.110    3.0964
   02/06/2018 03:44:00      0.157     0.110    3.1088
   02/06/2018 03:45:00      0.157     0.110    3.1212
   02/06/2018 03:46:00      0.157     0.110    3.1336
   02/06/2018 03:47:00      0.157     0.110    3.1461
   02/06/2018 03:48:00      0.165     0.115    3.1566
   02/06/2018 03:49:00      0.165     0.115    3.1732
   02/06/2018 03:50:00      0.165     0.115    3.1899
   02/06/2018 03:51:00      0.165     0.115    3.2066
   02/06/2018 03:52:00      0.165     0.115    3.2232
   02/06/2018 03:53:00      0.165     0.115    3.2399
   02/06/2018 03:54:00      0.172     0.120    3.2539
   02/06/2018 03:55:00      0.172     0.120    3.2737
   02/06/2018 03:56:00      0.172     0.120    3.2935
   02/06/2018 03:57:00      0.172     0.120    3.3133
   02/06/2018 03:58:00      0.172     0.120    3.3330
   02/06/2018 03:59:00      0.172     0.120    3.3528
   02/06/2018 04:00:00      0.179     0.126    3.3695
   02/06/2018 04:01:00      0.179     0.126    3.3915
   02/06/2018 04:02:00      0.179     0.126    3.4136
   02/06/2018 04:03:00      0.179     0.126    3.4356
   02/06/2018 04:04:00      0.179     0.126    3.4576
   02/06/2018 04:05:00      0.179     0.126    3.4797
   02/06/2018 04:06:00      0.189     0.132    3.4982
   02/06/2018 04:07:00      0.189     0.132    3.5239
   02/06/2018 04:08:00      0.189     0.132    3.5497
   02/06/2018 04:09:00      0.189     0.132    3.5754
   02/06/2018 04:10:00      0.189     0.132    3.6011
   02/06/2018 04:11:00      0.189     0.132    3.6269
   02/06/2018 04:12:00      0.200     0.140    3.6484
   02/06/2018 04:13:00      0.200     0.140    3.6789
   02/06/2018 04:14:00      0.200     0.140    3.7094
   02/06/2018 04:15:00      0.200     0.140    3.7398
   02/06/2018 04:16:00      0.200     0.140    3.7703
   02/06/2018 04:17:00      0.200     0.140    3.8008
   02/06/2018 04:18:00      0.211     0.147    3.8263
   02/06/2018 04:19:00      0.211     0.147    3.8602
   02/06/2018 04:20:00      0.211     0.147    3.8941
   02/06/2018 04:21:00      0.211     0.147    3.9280
   02/06/2018 04:22:00      0.211     0.147    3.9619
   02/06/2018 04:23:00      0.211     0.147    3.9959
   02/06/2018 04:24:00      0.222     0.155    4.0242
   02/06/2018 04:25:00      0.222     0.155    4.0606
   02/06/2018 04:26:00      0.222     0.155    4.0970
   02/06/2018 04:27:00      0.222     0.155    4.1334
   02/06/2018 04:28:00      0.222     0.155    4.1698
   02/06/2018 04:29:00      0.222     0.155    4.2062
   02/06/2018 04:30:00      0.233     0.163    4.2364
   02/06/2018 04:31:00      0.233     0.163    4.2746
   02/06/2018 04:32:00      0.233     0.163    4.3128
   02/06/2018 04:33:00      0.233     0.163    4.3510
   02/06/2018 04:34:00      0.233     0.163    4.3891
   02/06/2018 04:35:00      0.233     0.163    4.4273
   02/06/2018 04:36:00      0.247     0.173    4.4589
   02/06/2018 04:37:00      0.247     0.173    4.5027
   02/06/2018 04:38:00      0.247     0.173    4.5466
   02/06/2018 04:39:00      0.247     0.173    4.5904
   02/06/2018 04:40:00      0.247     0.173    4.6342
   02/06/2018 04:41:00      0.247     0.173    4.6780
   02/06/2018 04:42:00      0.266     0.186    4.7142
   02/06/2018 04:43:00      0.266     0.186    4.7665
   02/06/2018 04:44:00      0.266     0.186    4.8189
   02/06/2018 04:45:00      0.266     0.186    4.8712
   02/06/2018 04:46:00      0.266     0.186    4.9235
   02/06/2018 04:47:00      0.266     0.186    4.9759
   02/06/2018 04:48:00      0.284     0.199    5.0189
   02/06/2018 04:49:00      0.284     0.199    5.0772
   02/06/2018 04:50:00      0.284     0.199    5.1356
   02/06/2018 04:51:00      0.284     0.199    5.1940
   02/06/2018 04:52:00      0.284     0.199    5.2523
   02/06/2018 04:53:00      0.284     0.199    5.3107
   02/06/2018 04:54:00      0.302     0.211    5.3584
   02/06/2018 04:55:00      0.302     0.211    5.4209
   02/06/2018 04:56:00      0.302     0.211    5.4835
   02/06/2018 04:57:00      0.302     0.211    5.5461
   02/06/2018 04:58:00      0.302     0.211    5.6086
   02/06/2018 04:59:00      0.302     0.211    5.6712
   02/06/2018 05:00:00      0.320     0.224    5.7220
   02/06/2018 05:01:00      0.320     0.224    5.7874
   02/06/2018 05:02:00      0.320     0.224    5.8528
   02/06/2018 05:03:00      0.320     0.224    5.9182
   02/06/2018 05:04:00      0.320     0.224    5.9836
   02/06/2018 05:05:00      0.320     0.224    6.0491
   02/06/2018 05:06:00      0.352     0.246    6.1019
   02/06/2018 05:07:00      0.352     0.246    6.1864
   02/06/2018 05:08:00      0.352     0.246    6.2709
   02/06/2018 05:09:00      0.352     0.246    6.3554
   02/06/2018 05:10:00      0.352     0.246    6.4400
   02/06/2018 05:11:00      0.352     0.246    6.5245
   02/06/2018 05:12:00      0.396     0.277    6.5924
   02/06/2018 05:13:00      0.396     0.277    6.7079
   02/06/2018 05:14:00      0.396     0.277    6.8234
   02/06/2018 05:15:00      0.396     0.277    6.9388
   02/06/2018 05:16:00      0.396     0.277    7.0543
   02/06/2018 05:17:00      0.396     0.277    7.1697
   02/06/2018 05:18:00      0.439     0.308    7.2621
   02/06/2018 05:19:00      0.439     0.308    7.3988
   02/06/2018 05:20:00      0.439     0.308    7.5356
   02/06/2018 05:21:00      0.439     0.308    7.6723
   02/06/2018 05:22:00      0.439     0.308    7.8090
   02/06/2018 05:23:00      0.439     0.308    7.9458
   02/06/2018 05:24:00      0.483     0.338    8.0542
   02/06/2018 05:25:00      0.483     0.338    8.2051
   02/06/2018 05:26:00      0.483     0.338    8.3561
   02/06/2018 05:27:00      0.483     0.338    8.5071
   02/06/2018 05:28:00      0.483     0.338    8.6580
   02/06/2018 05:29:00      0.483     0.338    8.8090
   02/06/2018 05:30:00      0.527     0.369    8.9273
   02/06/2018 05:31:00      0.527     0.369    9.0873
   02/06/2018 05:32:00      0.527     0.369    9.2474
   02/06/2018 05:33:00      0.527     0.369    9.4074
   02/06/2018 05:34:00      0.527     0.369    9.5674
   02/06/2018 05:35:00      0.527     0.369    9.7274
   02/06/2018 05:36:00      1.091     0.679    9.8514
   02/06/2018 05:37:00      1.091     0.679   10.8895
   02/06/2018 05:38:00      1.091     0.679   11.9277
   02/06/2018 05:39:00      1.091     0.679   12.9659
   02/06/2018 05:40:00      1.091     0.679   14.0041
   02/06/2018 05:41:00      1.091     0.666   15.0423
   02/06/2018 05:42:00      2.175     0.650   15.8686
   02/06/2018 05:43:00      2.175     0.650   18.7634
   02/06/2018 05:44:00      2.175     0.650   21.6582
   02/06/2018 05:45:00      2.175     0.650   24.5530
   02/06/2018 05:46:00      2.175     0.650   27.4478
   02/06/2018 05:47:00      2.175     0.648   30.3426
   02/06/2018 05:48:00      3.499     0.636   32.6302
   02/06/2018 05:49:00      3.499     0.636   37.9341
   02/06/2018 05:50:00      3.499     0.636   43.2379
   02/06/2018 05:51:00      3.499     0.636   48.5417
   02/06/2018 05:52:00      3.499     0.636   53.8456
   02/06/2018 05:53:00      3.499     0.643   59.1494
   02/06/2018 05:54:00      6.275     0.634   63.0240
   02/06/2018 05:55:00      6.275     0.634   75.1943
   02/06/2018 05:56:00      6.275     0.634   87.3645
   02/06/2018 05:57:00      6.275     0.634   99.5348
   02/06/2018 05:58:00      6.275     0.634  111.7050
   02/06/2018 05:59:00      6.275     0.656  123.8753
   02/06/2018 06:00:00      4.355     0.649  132.2532
   02/06/2018 06:01:00      4.355     0.649  131.4357
   02/06/2018 06:02:00      4.355     0.649  130.6182
   02/06/2018 06:03:00      4.355     0.649  129.8006
   02/06/2018 06:04:00      4.355     0.649  128.9831
   02/06/2018 06:05:00      4.355     0.657  128.1656
   02/06/2018 06:06:00      0.868     0.648  128.9652
   02/06/2018 06:07:00      0.868     0.648  118.6412
   02/06/2018 06:08:00      0.868     0.648  108.3172
   02/06/2018 06:09:00      0.868     0.648   97.9932
   02/06/2018 06:10:00      0.868     0.648   87.6692
   02/06/2018 06:11:00      0.868     0.637   77.3452
   02/06/2018 06:12:00      0.764     0.627   72.2824
   02/06/2018 06:13:00      0.764     0.627   68.8811
   02/06/2018 06:14:00      0.764     0.627   65.4799
   02/06/2018 06:15:00      0.764     0.627   62.0786
   02/06/2018 06:16:00      0.764     0.627   58.6774
   02/06/2018 06:17:00      0.764     0.617   55.2761
   02/06/2018 06:18:00      0.659     0.608   53.1525
   02/06/2018 06:19:00      0.659     0.608   51.3841
   02/06/2018 06:20:00      0.659     0.608   49.6157
   02/06/2018 06:21:00      0.659     0.608   47.8473
   02/06/2018 06:22:00      0.659     0.608   46.0789
   02/06/2018 06:23:00      0.659     0.599   44.3105
   02/06/2018 06:24:00      0.555     0.591   43.0512
   02/06/2018 06:25:00      0.555     0.591   41.8283
   02/06/2018 06:26:00      0.555     0.591   40.6055
   02/06/2018 06:27:00      0.555     0.591   39.3827
   02/06/2018 06:28:00      0.555     0.591   38.1598
   02/06/2018 06:29:00      0.555     0.583   36.9370
   02/06/2018 06:30:00      0.450     0.576   35.9985
   02/06/2018 06:31:00      0.450     0.576   34.9987
   02/06/2018 06:32:00      0.450     0.576   33.9989
   02/06/2018 06:33:00      0.450     0.576   32.9991
   02/06/2018 06:34:00      0.450     0.576   31.9993
   02/06/2018 06:35:00      0.450     0.569   30.9994
   02/06/2018 06:36:00      0.386     0.562   30.1995
   02/06/2018 06:37:00      0.386     0.562   29.3934
   02/06/2018 06:38:00      0.386     0.562   28.5874
   02/06/2018 06:39:00      0.386     0.562   27.7813
   02/06/2018 06:40:00      0.386     0.562   26.9753
   02/06/2018 06:41:00      0.386     0.556   26.1692
   02/06/2018 06:42:00      0.363     0.550   25.5029
   02/06/2018 06:43:00      0.363     0.550   24.8851
   02/06/2018 06:44:00      0.363     0.550   24.2674
   02/06/2018 06:45:00      0.363     0.550   23.6496
   02/06/2018 06:46:00      0.363     0.550   23.0318
   02/06/2018 06:47:00      0.363     0.544   22.4141
   02/06/2018 06:48:00      0.339     0.539   21.8878
   02/06/2018 06:49:00      0.339     0.539   21.3820
   02/06/2018 06:50:00      0.339     0.539   20.8762
   02/06/2018 06:51:00      0.339     0.539   20.3704
   02/06/2018 06:52:00      0.339     0.539   19.8646
   02/06/2018 06:53:00      0.339     0.534   19.3588
   02/06/2018 06:54:00      0.315     0.530   18.9205
   02/06/2018 06:55:00      0.315     0.530   18.4886
   02/06/2018 06:56:00      0.315     0.530   18.0566
   02/06/2018 06:57:00      0.315     0.530   17.6247
   02/06/2018 06:58:00      0.315     0.530   17.1927
   02/06/2018 06:59:00      0.315     0.525   16.7608
   02/06/2018 07:00:00      0.291     0.521   16.3829
   02/06/2018 07:01:00      0.291     0.521   16.0040
   02/06/2018 07:02:00      0.291     0.521   15.6251
   02/06/2018 07:03:00      0.291     0.521   15.2462
   02/06/2018 07:04:00      0.291     0.521   14.8672
   02/06/2018 07:05:00      0.291     0.516   14.4883
   02/06/2018 07:06:00      0.273     0.513   14.1555
   02/06/2018 07:07:00      0.273     0.513   13.8271
   02/06/2018 07:08:00      0.273     0.513   13.4986
   02/06/2018 07:09:00      0.273     0.513   13.1702
   02/06/2018 07:10:00      0.273     0.513   12.8418
   02/06/2018 07:11:00      0.273     0.509   12.5134
   02/06/2018 07:12:00      0.260     0.505   12.2238
   02/06/2018 07:13:00      0.260     0.505   11.9440
   02/06/2018 07:14:00      0.260     0.505   11.6641
   02/06/2018 07:15:00      0.260     0.505   11.3842
   02/06/2018 07:16:00      0.260     0.505   11.1043
   02/06/2018 07:17:00      0.260     0.502   10.8245
   02/06/2018 07:18:00      0.247     0.499   10.5769
   02/06/2018 07:19:00      0.247     0.499   10.3351
   02/06/2018 07:20:00      0.247     0.499   10.0933
   02/06/2018 07:21:00      0.247     0.499    9.8514
   02/06/2018 07:22:00      0.247     0.499    9.6096
   02/06/2018 07:23:00      0.247     0.495    9.3678
   02/06/2018 07:24:00      0.234     0.492    9.1541
   02/06/2018 07:25:00      0.234     0.492    8.9438
   02/06/2018 07:26:00      0.234     0.492    8.7336
   02/06/2018 07:27:00      0.234     0.492    8.5233
   02/06/2018 07:28:00      0.234     0.492    8.3130
   02/06/2018 07:29:00      0.234     0.489    8.1028
   02/06/2018 07:30:00      0.222     0.486    7.9179
   02/06/2018 07:31:00      0.222     0.486    7.7353
   02/06/2018 07:32:00      0.222     0.486    7.5527
   02/06/2018 07:33:00      0.222     0.486    7.3701
   02/06/2018 07:34:00      0.222     0.486    7.1875
   02/06/2018 07:35:00      0.222     0.483    7.0048
   02/06/2018 07:36:00      0.211     0.481    6.8459
   02/06/2018 07:37:00      0.211     0.481    6.6915
   02/06/2018 07:38:00      0.211     0.481    6.5370
   02/06/2018 07:39:00      0.211     0.481    6.3826
   02/06/2018 07:40:00      0.211     0.481    6.2282
   02/06/2018 07:41:00      0.211     0.478    6.0738
   02/06/2018 07:42:00      0.201     0.476    5.9415
   02/06/2018 07:43:00      0.201     0.476    5.8162
   02/06/2018 07:44:00      0.201     0.476    5.6909
   02/06/2018 07:45:00      0.201     0.476    5.5656
   02/06/2018 07:46:00      0.201     0.476    5.4403
   02/06/2018 07:47:00      0.201     0.473    5.3151
   02/06/2018 07:48:00      0.192     0.471    5.2110
   02/06/2018 07:49:00      0.192     0.471    5.1145
   02/06/2018 07:50:00      0.192     0.471    5.0181
   02/06/2018 07:51:00      0.192     0.471    4.9217
   02/06/2018 07:52:00      0.192     0.471    4.8252
   02/06/2018 07:53:00      0.192     0.469    4.7288
   02/06/2018 07:54:00      0.183     0.467    4.6544
   02/06/2018 07:55:00      0.183     0.467    4.5921
   02/06/2018 07:56:00      0.183     0.467    4.5299
   02/06/2018 07:57:00      0.183     0.467    4.4676
   02/06/2018 07:58:00      0.183     0.467    4.4054
   02/06/2018 07:59:00      0.183     0.464    4.3431
   02/06/2018 08:00:00      0.174     0.462    4.3127
   02/06/2018 08:01:00      0.174     0.462    4.2781
   02/06/2018 08:02:00      0.174     0.462    4.2436
   02/06/2018 08:03:00      0.174     0.462    4.2090
   02/06/2018 08:04:00      0.174     0.462    4.1744
   02/06/2018 08:05:00      0.174     0.291    4.1398
   02/06/2018 08:06:00      0.168     0.118    4.1117
   02/06/2018 08:07:00      0.168     0.118    4.0817
   02/06/2018 08:08:00      0.168     0.118    4.0517
   02/06/2018 08:09:00      0.168     0.118    4.0217
   02/06/2018 08:10:00      0.168     0.118    3.9917
   02/06/2018 08:11:00      0.168     0.118    3.9617
   02/06/2018 08:12:00      0.164     0.115    3.9372
   02/06/2018 08:13:00      0.164     0.115    3.9128
   02/06/2018 08:14:00      0.164     0.115    3.8884
   02/06/2018 08:15:00      0.164     0.115    3.8640
   02/06/2018 08:16:00      0.164     0.115    3.8396
   02/06/2018 08:17:00      0.164     0.115    3.8152
   02/06/2018 08:18:00      0.162     0.113    3.7952
   02/06/2018 08:19:00      0.162     0.113    3.7755
   02/06/2018 08:20:00      0.162     0.113    3.7558
   02/06/2018 08:21:00      0.162     0.113    3.7361
   02/06/2018 08:22:00      0.162     0.113    3.7164
   02/06/2018 08:23:00      0.162     0.113    3.6967
   02/06/2018 08:24:00      0.158     0.111    3.6805
   02/06/2018 08:25:00      0.158     0.111    3.6629
   02/06/2018 08:26:00      0.158     0.111    3.6454
   02/06/2018 08:27:00      0.158     0.111    3.6278
   02/06/2018 08:28:00      0.158     0.111    3.6103
   02/06/2018 08:29:00      0.158     0.111    3.5927
   02/06/2018 08:30:00      0.155     0.109    3.5782
   02/06/2018 08:31:00      0.155     0.109    3.5631
   02/06/2018 08:32:00      0.155     0.109    3.5480
   02/06/2018 08:33:00      0.155     0.109    3.5329
   02/06/2018 08:34:00      0.155     0.109    3.5177
   02/06/2018 08:35:00      0.155     0.109    3.5026
   02/06/2018 08:36:00      0.152     0.106    3.4901
   02/06/2018 08:37:00      0.152     0.106    3.4757
   02/06/2018 08:38:00      0.152     0.106    3.4612
   02/06/2018 08:39:00      0.152     0.106    3.4468
   02/06/2018 08:40:00      0.152     0.106    3.4323
   02/06/2018 08:41:00      0.152     0.106    3.4179
   02/06/2018 08:42:00      0.149     0.104    3.4059
   02/06/2018 08:43:00      0.149     0.104    3.3929
   02/06/2018 08:44:00      0.149     0.104    3.3799
   02/06/2018 08:45:00      0.149     0.104    3.3669
   02/06/2018 08:46:00      0.149     0.104    3.3539
   02/06/2018 08:47:00      0.149     0.104    3.3409
   02/06/2018 08:48:00      0.145     0.102    3.3301
   02/06/2018 08:49:00      0.145     0.102    3.3171
   02/06/2018 08:50:00      0.145     0.102    3.3041
   02/06/2018 08:51:00      0.145     0.102    3.2911
   02/06/2018 08:52:00      0.145     0.102    3.2781
   02/06/2018 08:53:00      0.145     0.102    3.2651
   02/06/2018 08:54:00      0.142     0.100    3.2543
   02/06/2018 08:55:00      0.142     0.100    3.2423
   02/06/2018 08:56:00      0.142     0.100    3.2303
   02/06/2018 08:57:00      0.142     0.100    3.2183
   02/06/2018 08:58:00      0.142     0.100    3.2063
   02/06/2018 08:59:00      0.142     0.100    3.1943
   02/06/2018 09:00:00      0.139     0.097    3.1843
   02/06/2018 09:01:00      0.139     0.097    3.1720
   02/06/2018 09:02:00      0.139     0.097    3.1597
   02/06/2018 09:03:00      0.139     0.097    3.1474
   02/06/2018 09:04:00      0.139     0.097    3.1351
   02/06/2018 09:05:00      0.139     0.097    3.1228
   02/06/2018 09:06:00      0.136     0.095    3.1126
   02/06/2018 09:07:00      0.136     0.095    3.1011
   02/06/2018 09:08:00      0.136     0.095    3.0895
   02/06/2018 09:09:00      0.136     0.095    3.0780
   02/06/2018 09:10:00      0.136     0.095    3.0665
   02/06/2018 09:11:00      0.136     0.095    3.0550
   02/06/2018 09:12:00      0.132     0.093    3.0453
   02/06/2018 09:13:00      0.132     0.093    3.0334
   02/06/2018 09:14:00      0.132     0.093    3.0214
   02/06/2018 09:15:00      0.132     0.093    3.0095
   02/06/2018 09:16:00      0.132     0.093    2.9976
   02/06/2018 09:17:00      0.132     0.093    2.9856
   02/06/2018 09:18:00      0.130     0.091    2.9756
   02/06/2018 09:19:00      0.130     0.091    2.9643
   02/06/2018 09:20:00      0.130     0.091    2.9530
   02/06/2018 09:21:00      0.130     0.091    2.9418
   02/06/2018 09:22:00      0.130     0.091    2.9305
   02/06/2018 09:23:00      0.130     0.091    2.9192
   02/06/2018 09:24:00      0.126     0.088    2.9097
   02/06/2018 09:25:00      0.126     0.088    2.8980
   02/06/2018 09:26:00      0.126     0.088    2.8862
   02/06/2018 09:27:00      0.126     0.088    2.8744
   02/06/2018 09:28:00      0.126     0.088    2.8627
   02/06/2018 09:29:00      0.126     0.088    2.8509
   02/06/2018 09:30:00      0.123     0.086    2.8410
   02/06/2018 09:31:00      0.123     0.086    2.8299
   02/06/2018 09:32:00      0.123     0.086    2.8187
   02/06/2018 09:33:00      0.123     0.086    2.8076
   02/06/2018 09:34:00      0.123     0.086    2.7964
   02/06/2018 09:35:00      0.123     0.086    2.7853
   02/06/2018 09:36:00      0.119     0.084    2.7759
   02/06/2018 09:37:00      0.119     0.084    2.7642
   02/06/2018 09:38:00      0.119     0.084    2.7526
   02/06/2018 09:39:00      0.119     0.084    2.7409
   02/06/2018 09:40:00      0.119     0.084    2.7293
   02/06/2018 09:41:00      0.119     0.084    2.7176
   02/06/2018 09:42:00      0.117     0.082    2.7078
   02/06/2018 09:43:00      0.117     0.082    2.6967
   02/06/2018 09:44:00      0.117     0.082    2.6856
   02/06/2018 09:45:00      0.117     0.082    2.6745
   02/06/2018 09:46:00      0.117     0.082    2.6634
   02/06/2018 09:47:00      0.117     0.082    2.6523
   02/06/2018 09:48:00      0.113     0.079    2.6430
   02/06/2018 09:49:00      0.113     0.079    2.6314
   02/06/2018 09:50:00      0.113     0.079    2.6198
   02/06/2018 09:51:00      0.113     0.079    2.6082
   02/06/2018 09:52:00      0.113     0.079    2.5966
   02/06/2018 09:53:00      0.113     0.079    2.5851
   02/06/2018 09:54:00      0.110     0.077    2.5753
   02/06/2018 09:55:00      0.110     0.077    2.5642
   02/06/2018 09:56:00      0.110     0.077    2.5532
   02/06/2018 09:57:00      0.110     0.077    2.5421
   02/06/2018 09:58:00      0.110     0.077    2.5311
   02/06/2018 09:59:00      0.110     0.077    2.5201
   02/06/2018 10:00:00      0.107     0.075    2.5107
   02/06/2018 10:01:00      0.107     0.075    2.4992
   02/06/2018 10:02:00      0.107     0.075    2.4876
   02/06/2018 10:03:00      0.107     0.075    2.4761
   02/06/2018 10:04:00      0.107     0.075    2.4646
   02/06/2018 10:05:00      0.107     0.075    2.4530
   02/06/2018 10:06:00      0.105     0.073    2.4432
   02/06/2018 10:07:00      0.105     0.073    2.4331
   02/06/2018 10:08:00      0.105     0.073    2.4230
   02/06/2018 10:09:00      0.105     0.073    2.4129
   02/06/2018 10:10:00      0.105     0.073    2.4027
   02/06/2018 10:11:00      0.105     0.073    2.3926
   02/06/2018 10:12:00      0.103     0.072    2.3840
   02/06/2018 10:13:00      0.103     0.072    2.3753
   02/06/2018 10:14:00      0.103     0.072    2.3666
   02/06/2018 10:15:00      0.103     0.072    2.3579
   02/06/2018 10:16:00      0.103     0.072    2.3492
   02/06/2018 10:17:00      0.103     0.072    2.3406
   02/06/2018 10:18:00      0.103     0.072    2.3331
   02/06/2018 10:19:00      0.103     0.072    2.3259
   02/06/2018 10:20:00      0.103     0.072    2.3187
   02/06/2018 10:21:00      0.103     0.072    2.3115
   02/06/2018 10:22:00      0.103     0.072    2.3043
   02/06/2018 10:23:00      0.103     0.072    2.2970
   02/06/2018 10:24:00      0.101     0.071    2.2909
   02/06/2018 10:25:00      0.101     0.071    2.2843
   02/06/2018 10:26:00      0.101     0.071    2.2777
   02/06/2018 10:27:00      0.101     0.071    2.2711
   02/06/2018 10:28:00      0.101     0.071    2.2645
   02/06/2018 10:29:00      0.101     0.071    2.2579
   02/06/2018 10:30:00      0.100     0.070    2.2523
   02/06/2018 10:31:00      0.100     0.070    2.2466
   02/06/2018 10:32:00      0.100     0.070    2.2409
   02/06/2018 10:33:00      0.100     0.070    2.2352
   02/06/2018 10:34:00      0.100     0.070    2.2294
   02/06/2018 10:35:00      0.100     0.070    2.2237
   02/06/2018 10:36:00      0.099     0.069    2.2189
   02/06/2018 10:37:00      0.099     0.069    2.2134
   02/06/2018 10:38:00      0.099     0.069    2.2079
   02/06/2018 10:39:00      0.099     0.069    2.2024
   02/06/2018 10:40:00      0.099     0.069    2.1969
   02/06/2018 10:41:00      0.099     0.069    2.1914
   02/06/2018 10:42:00      0.098     0.069    2.1867
   02/06/2018 10:43:00      0.098     0.069    2.1818
   02/06/2018 10:44:00      0.098     0.069    2.1769
   02/06/2018 10:45:00      0.098     0.069    2.1720
   02/06/2018 10:46:00      0.098     0.069    2.1671
   02/06/2018 10:47:00      0.098     0.069    2.1622
   02/06/2018 10:48:00      0.097     0.068    2.1580
   02/06/2018 10:49:00      0.097     0.068    2.1531
   02/06/2018 10:50:00      0.097     0.068    2.1482
   02/06/2018 10:51:00      0.097     0.068    2.1433
   02/06/2018 10:52:00      0.097     0.068    2.1384
   02/06/2018 10:53:00      0.097     0.068    2.1335
   02/06/2018 10:54:00      0.096     0.067    2.1293
   02/06/2018 10:55:00      0.096     0.067    2.1249
   02/06/2018 10:56:00      0.096     0.067    2.1204
   02/06/2018 10:57:00      0.096     0.067    2.1159
   02/06/2018 10:58:00      0.096     0.067    2.1114
   02/06/2018 10:59:00      0.096     0.067    2.1070
   02/06/2018 11:00:00      0.094     0.066    2.1031
   02/06/2018 11:01:00      0.094     0.066    2.0985
   02/06/2018 11:02:00      0.094     0.066    2.0940
   02/06/2018 11:03:00      0.094     0.066    2.0894
   02/06/2018 11:04:00      0.094     0.066    2.0848
   02/06/2018 11:05:00      0.094     0.066    2.0802
   02/06/2018 11:06:00      0.093     0.065    2.0763
   02/06/2018 11:07:00      0.093     0.065    2.0721
   02/06/2018 11:08:00      0.093     0.065    2.0678
   02/06/2018 11:09:00      0.093     0.065    2.0636
   02/06/2018 11:10:00      0.093     0.065    2.0594
   02/06/2018 11:11:00      0.093     0.065    2.0551
   02/06/2018 11:12:00      0.092     0.064    2.0515
   02/06/2018 11:13:00      0.092     0.064    2.0471
   02/06/2018 11:14:00      0.092     0.064    2.0427
   02/06/2018 11:15:00      0.092     0.064    2.0383
   02/06/2018 11:16:00      0.092     0.064    2.0339
   02/06/2018 11:17:00      0.092     0.064    2.0295
   02/06/2018 11:18:00      0.091     0.064    2.0257
   02/06/2018 11:19:00      0.091     0.064    2.0216
   02/06/2018 11:20:00      0.091     0.064    2.0175
   02/06/2018 11:21:00      0.091     0.064    2.0134
   02/06/2018 11:22:00      0.091     0.064    2.0093
   02/06/2018 11:23:00      0.091     0.064    2.0052
   02/06/2018 11:24:00      0.090     0.063    2.0016
   02/06/2018 11:25:00      0.090     0.063    1.9973
   02/06/2018 11:26:00      0.090     0.063    1.9930
   02/06/2018 11:27:00      0.090     0.063    1.9887
   02/06/2018 11:28:00      0.090     0.063    1.9844
   02/06/2018 11:29:00      0.090     0.063    1.9801
   02/06/2018 11:30:00      0.089     0.062    1.9764
   02/06/2018 11:31:00      0.089     0.062    1.9723
   02/06/2018 11:32:00      0.089     0.062    1.9683
   02/06/2018 11:33:00      0.089     0.062    1.9643
   02/06/2018 11:34:00      0.089     0.062    1.9602
   02/06/2018 11:35:00      0.089     0.062    1.9562
   02/06/2018 11:36:00      0.087     0.061    1.9527
   02/06/2018 11:37:00      0.087     0.061    1.9485
   02/06/2018 11:38:00      0.087     0.061    1.9442
   02/06/2018 11:39:00      0.087     0.061    1.9400
   02/06/2018 11:40:00      0.087     0.061    1.9357
   02/06/2018 11:41:00      0.087     0.061    1.9315
   02/06/2018 11:42:00      0.087     0.061    1.9278
   02/06/2018 11:43:00      0.087     0.061    1.9238
   02/06/2018 11:44:00      0.087     0.061    1.9198
   02/06/2018 11:45:00      0.087     0.061    1.9158
   02/06/2018 11:46:00      0.087     0.061    1.9118
   02/06/2018 11:47:00      0.087     0.061    1.9078
   02/06/2018 11:48:00      0.085     0.060    1.9044
   02/06/2018 11:49:00      0.085     0.060    1.9002
   02/06/2018 11:50:00      0.085     0.060    1.8959
   02/06/2018 11:51:00      0.085     0.060    1.8917
   02/06/2018 11:52:00      0.085     0.060    1.8875
   02/06/2018 11:53:00      0.085     0.060    1.8833
   02/06/2018 11:54:00      0.084     0.059    1.8797
   02/06/2018 11:55:00      0.084     0.059    1.8757
   02/06/2018 11:56:00      0.084     0.059    1.8717
   02/06/2018 11:57:00      0.084     0.059    1.8677
   02/06/2018 11:58:00      0.084     0.059    1.8638
   02/06/2018 11:59:00      0.084     0.059    1.8598
   02/06/2018 12:00:00      0.083     0.058    1.8563
   02/06/2018 12:01:00      0.083     0.058    1.8521
   02/06/2018 12:02:00      0.083     0.058    1.8480
   02/06/2018 12:03:00      0.083     0.058    1.8438
   02/06/2018 12:04:00      0.083     0.058    1.8396
   02/06/2018 12:05:00      0.083     0.058    1.8354
   02/06/2018 12:06:00      0.000     0.000    1.8317
   02/06/2018 12:07:00      0.000     0.000    1.7593
   02/06/2018 12:08:00      0.000     0.000    1.6869
   02/06/2018 12:09:00      0.000     0.000    1.6145
   02/06/2018 12:10:00      0.000     0.000    1.5421
   02/06/2018 12:11:00      0.000     0.000    1.4697
   02/06/2018 12:12:00      0.000     0.000    1.4159
   02/06/2018 12:13:00      0.000     0.000    1.3620
   02/06/2018 12:14:00      0.000     0.000    1.3082
   02/06/2018 12:15:00      0.000     0.000    1.2543
   02/06/2018 12:16:00      0.000     0.000    1.2005
   02/06/2018 12:17:00      0.000     0.000    1.1595
   02/06/2018 12:18:00      0.000     0.000    1.1185
   02/06/2018 12:19:00      0.000     0.000    1.0775
   02/06/2018 12:20:00      0.000     0.000    1.0365
   02/06/2018 12:21:00      0.000     0.000    0.9955
   02/06/2018 12:22:00      0.000     0.000    0.9637
   02/06/2018 12:23:00      0.000     0.000    0.9319
   02/06/2018 12:24:00      0.000     0.000    0.9001
   02/06/2018 12:25:00      0.000     0.000    0.8683
   02/06/2018 12:26:00      0.000     0.000    0.8364
   02/06/2018 12:27:00      0.000     0.000    0.8113
   02/06/2018 12:28:00      0.000     0.000    0.7862
   02/06/2018 12:29:00      0.000     0.000    0.7610
   02/06/2018 12:30:00      0.000     0.000    0.7359
   02/06/2018 12:31:00      0.000     0.000    0.7108
   02/06/2018 12:32:00      0.000     0.000    0.6906
   02/06/2018 12:33:00      0.000     0.000    0.6705
   02/06/2018 12:34:00      0.000     0.000    0.6503
   02/06/2018 12:35:00      0.000     0.000    0.6302
   02/06/2018 12:36:00      0.000     0.000    0.6100
   02/06/2018 12:37:00      0.000     0.000    0.5937
   02/06/2018 12:38:00      0.000     0.000    0.5773
   02/06/2018 12:39:00      0.000     0.000    0.5609
   02/06/2018 12:40:00      0.000     0.000    0.5446
   02/06/2018 12:41:00      0.000     0.000    0.5282
   02/06/2018 12:42:00      0.000     0.000    0.5147
   02/06/2018 12:43:00      0.000     0.000    0.5013
   02/06/2018 12:44:00      0.000     0.000    0.4878
   02/06/2018 12:45:00      0.000     0.000    0.4744
   02/06/2018 12:46:00      0.000     0.000    0.4609
   02/06/2018 12:47:00      0.000     0.000    0.4498
   02/06/2018 12:48:00      0.000     0.000    0.4386
   02/06/2018 12:49:00      0.000     0.000    0.4274
   02/06/2018 12:50:00      0.000     0.000    0.4163
   02/06/2018 12:51:00      0.000     0.000    0.4051
   02/06/2018 12:52:00      0.000     0.000    0.3957
   02/06/2018 12:53:00      0.000     0.000    0.3864
   02/06/2018 12:54:00      0.000     0.000    0.3770
   02/06/2018 12:55:00      0.000     0.000    0.3676
   02/06/2018 12:56:00      0.000     0.000    0.3583
   02/06/2018 12:57:00      0.000     0.000    0.3504
   02/06/2018 12:58:00      0.000     0.000    0.3425
   02/06/2018 12:59:00      0.000     0.000    0.3345
   02/06/2018 13:00:00      0.000     0.000    0.3266
   02/06/2018 13:01:00      0.000     0.000    0.3187
   02/06/2018 13:02:00      0.000     0.000    0.3120
   02/06/2018 13:03:00      0.000     0.000    0.3052
   02/06/2018 13:04:00      0.000     0.000    0.2985
   02/06/2018 13:05:00      0.000     0.000    0.2917
   02/06/2018 13:06:00      0.000     0.000    0.2850
   02/06/2018 13:07:00      0.000     0.000    0.2792
   02/06/2018 13:08:00      0.000     0.000    0.2734
   02/06/2018 13:09:00      0.000     0.000    0.2676
   02/06/2018 13:10:00      0.000     0.000    0.2618
   02/06/2018 13:11:00      0.000     0.000    0.2561
   02/06/2018 13:12:00      0.000     0.000    0.2511
   02/06/2018 13:13:00      0.000     0.000    0.2461
   02/06/2018 13:14:00      0.000     0.000    0.2411
   02/06/2018 13:15:00      0.000     0.000    0.2361
   02/06/2018 13:16:00      0.000     0.000    0.2311
   02/06/2018 13:17:00      0.000     0.000    0.2267
   02/06/2018 13:18:00      0.000     0.000    0.2224
   02/06/2018 13:19:00      0.000     0.000    0.2181
   02/06/2018 13:20:00      0.000     0.000    0.2137
   02/06/2018 13:21:00      0.000     0.000    0.2094
   02/06/2018 13:22:00      0.000     0.000    0.2056
   02/06/2018 13:23:00      0.000     0.000    0.2018
   02/06/2018 13:24:00      0.000     0.000    0.1980
   02/06/2018 13:25:00      0.000     0.000    0.1942
   02/06/2018 13:26:00      0.000     0.000    0.1904
   02/06/2018 13:27:00      0.000     0.000    0.1871
   02/06/2018 13:28:00      0.000     0.000    0.1838
   02/06/2018 13:29:00      0.000     0.000    0.1805
   02/06/2018 13:30:00      0.000     0.000    0.1771
   02/06/2018 13:31:00      0.000     0.000    0.1738
   02/06/2018 13:32:00      0.000     0.000    0.1709
   02/06/2018 13:33:00      0.000     0.000    0.1679
   02/06/2018 13:34:00      0.000     0.000    0.1650
   02/06/2018 13:35:00      0.000     0.000    0.1621
   02/06/2018 13:36:00      0.000     0.000    0.1591
   02/06/2018 13:37:00      0.000     0.000    0.1565
   02/06/2018 13:38:00      0.000     0.000    0.1539
   02/06/2018 13:39:00      0.000     0.000    0.1513
   02/06/2018 13:40:00      0.000     0.000    0.1488
   02/06/2018 13:41:00      0.000     0.000    0.1462
   02/06/2018 13:42:00      0.000     0.000    0.1438
   02/06/2018 13:43:00      0.000     0.000    0.1415
   02/06/2018 13:44:00      0.000     0.000    0.1392
   02/06/2018 13:45:00      0.000     0.000    0.1369
   02/06/2018 13:46:00      0.000     0.000    0.1346
   02/06/2018 13:47:00      0.000     0.000    0.1325
   02/06/2018 13:48:00      0.000     0.000    0.1305
   02/06/2018 13:49:00      0.000     0.000    0.1284
   02/06/2018 13:50:00      0.000     0.000    0.1263
   02/06/2018 13:51:00      0.000     0.000    0.1243
   02/06/2018 13:52:00      0.000     0.000    0.1224
   02/06/2018 13:53:00      0.000     0.000    0.1206
   02/06/2018 13:54:00      0.000     0.000    0.1187
   02/06/2018 13:55:00      0.000     0.000    0.1169
   02/06/2018 13:56:00      0.000     0.000    0.1150
   02/06/2018 13:57:00      0.000     0.000    0.1134
   02/06/2018 13:58:00      0.000     0.000    0.1117
   02/06/2018 13:59:00      0.000     0.000    0.1101
   02/06/2018 14:00:00      0.000     0.000    0.1084
   02/06/2018 14:01:00      0.000     0.000    0.1067
   02/06/2018 14:02:00      0.000     0.000    0.1052
   02/06/2018 14:03:00      0.000     0.000    0.1037
   02/06/2018 14:04:00      0.000     0.000    0.1022
   02/06/2018 14:05:00      0.000     0.000    0.1007
   02/06/2018 14:06:00      0.000     0.000    0.0992
   02/06/2018 14:07:00      0.000     0.000    0.0979
   02/06/2018 14:08:00      0.000     0.000    0.0965
   02/06/2018 14:09:00      0.000     0.000    0.0952
   02/06/2018 14:10:00      0.000     0.000    0.0938
   02/06/2018 14:11:00      0.000     0.000    0.0925
   02/06/2018 14:12:00      0.000     0.000    0.0912
   02/06/2018 14:13:00      0.000     0.000    0.0900
   02/06/2018 14:14:00      0.000     0.000    0.0888
   02/06/2018 14:15:00      0.000     0.000    0.0876
   02/06/2018 14:16:00      0.000     0.000    0.0863
   02/06/2018 14:17:00      0.000     0.000    0.0852
   02/06/2018 14:18:00      0.000     0.000    0.0841
   02/06/2018 14:19:00      0.000     0.000    0.0830
   02/06/2018 14:20:00      0.000     0.000    0.0819
   02/06/2018 14:21:00      0.000     0.000    0.0807
   02/06/2018 14:22:00      0.000     0.000    0.0797
   02/06/2018 14:23:00      0.000     0.000    0.0787
   02/06/2018 14:24:00      0.000     0.000    0.0777
   02/06/2018 14:25:00      0.000     0.000    0.0767
   02/06/2018 14:26:00      0.000     0.000    0.0756
   02/06/2018 14:27:00      0.000     0.000    0.0747
   02/06/2018 14:28:00      0.000     0.000    0.0738
   02/06/2018 14:29:00      0.000     0.000    0.0729
   02/06/2018 14:30:00      0.000     0.000    0.0719
   02/06/2018 14:31:00      0.000     0.000    0.0710
   02/06/2018 14:32:00      0.000     0.000    0.0000
   02/06/2018 14:33:00      0.000     0.000    0.0000
   02/06/2018 14:34:00      0.000     0.000    0.0000
   02/06/2018 14:35:00      0.000     0.000    0.0000
   02/06/2018 14:36:00      0.000     0.000    0.0000
   02/06/2018 14:37:00      0.000     0.000    0.0000
   02/06/2018 14:38:00      0.000     0.000    0.0000
   02/06/2018 14:39:00      0.000     0.000    0.0000
   02/06/2018 14:40:00      0.000     0.000    0.0000
   02/06/2018 14:41:00      0.000     0.000    0.0000
   02/06/2018 14:42:00      0.000     0.000    0.0000
   02/06/2018 14:43:00      0.000     0.000    0.0000
   02/06/2018 14:44:00      0.000     0.000    0.0000
   02/06/2018 14:45:00      0.000     0.000    0.0000
   02/06/2018 14:46:00      0.000     0.000    0.0000
   02/06/2018 14:47:00      0.000     0.000    0.0000
   02/06/2018 14:48:00      0.000     0.000    0.0000
   02/06/2018 14:49:00      0.000     0.000    0.0000
   02/06/2018 14:50:00      0.000     0.000    0.0000
   02/06/2018 14:51:00      0.000     0.000    0.0000
   02/06/2018 14:52:00      0.000     0.000    0.0000
   02/06/2018 14:53:00      0.000     0.000    0.0000
   02/06/2018 14:54:00      0.000     0.000    0.0000
   02/06/2018 14:55:00      0.000     0.000    0.0000
   02/06/2018 14:56:00      0.000     0.000    0.0000
   02/06/2018 14:57:00      0.000     0.000    0.0000
   02/06/2018 14:58:00      0.000     0.000    0.0000
   02/06/2018 14:59:00      0.000     0.000    0.0000
   02/06/2018 15:00:00      0.000     0.000    0.0000
   02/06/2018 15:01:00      0.000     0.000    0.0000
   02/06/2018 15:02:00      0.000     0.000    0.0000
   02/06/2018 15:03:00      0.000     0.000    0.0000
   02/06/2018 15:04:00      0.000     0.000    0.0000
   02/06/2018 15:05:00      0.000     0.000    0.0000
   02/06/2018 15:06:00      0.000     0.000    0.0000
   02/06/2018 15:07:00      0.000     0.000    0.0000
   02/06/2018 15:08:00      0.000     0.000    0.0000
   02/06/2018 15:09:00      0.000     0.000    0.0000
   02/06/2018 15:10:00      0.000     0.000    0.0000
   02/06/2018 15:11:00      0.000     0.000    0.0000
   02/06/2018 15:12:00      0.000     0.000    0.0000
   02/06/2018 15:13:00      0.000     0.000    0.0000
   02/06/2018 15:14:00      0.000     0.000    0.0000
   02/06/2018 15:15:00      0.000     0.000    0.0000
   02/06/2018 15:16:00      0.000     0.000    0.0000
   02/06/2018 15:17:00      0.000     0.000    0.0000
   02/06/2018 15:18:00      0.000     0.000    0.0000
   02/06/2018 15:19:00      0.000     0.000    0.0000
   02/06/2018 15:20:00      0.000     0.000    0.0000
   02/06/2018 15:21:00      0.000     0.000    0.0000
   02/06/2018 15:22:00      0.000     0.000    0.0000
   02/06/2018 15:23:00      0.000     0.000    0.0000
   02/06/2018 15:24:00      0.000     0.000    0.0000
   02/06/2018 15:25:00      0.000     0.000    0.0000
   02/06/2018 15:26:00      0.000     0.000    0.0000
   02/06/2018 15:27:00      0.000     0.000    0.0000
   02/06/2018 15:28:00      0.000     0.000    0.0000
   02/06/2018 15:29:00      0.000     0.000    0.0000
   02/06/2018 15:30:00      0.000     0.000    0.0000
   02/06/2018 15:31:00      0.000     0.000    0.0000
   02/06/2018 15:32:00      0.000     0.000    0.0000
   02/06/2018 15:33:00      0.000     0.000    0.0000
   02/06/2018 15:34:00      0.000     0.000    0.0000
   02/06/2018 15:35:00      0.000     0.000    0.0000
   02/06/2018 15:36:00      0.000     0.000    0.0000
   02/06/2018 15:37:00      0.000     0.000    0.0000
   02/06/2018 15:38:00      0.000     0.000    0.0000
   02/06/2018 15:39:00      0.000     0.000    0.0000
   02/06/2018 15:40:00      0.000     0.000    0.0000
   02/06/2018 15:41:00      0.000     0.000    0.0000
   02/06/2018 15:42:00      0.000     0.000    0.0000
   02/06/2018 15:43:00      0.000     0.000    0.0000
   02/06/2018 15:44:00      0.000     0.000    0.0000
   02/06/2018 15:45:00      0.000     0.000    0.0000
   02/06/2018 15:46:00      0.000     0.000    0.0000
   02/06/2018 15:47:00      0.000     0.000    0.0000
   02/06/2018 15:48:00      0.000     0.000    0.0000
   02/06/2018 15:49:00      0.000     0.000    0.0000
   02/06/2018 15:50:00      0.000     0.000    0.0000
   02/06/2018 15:51:00      0.000     0.000    0.0000
   02/06/2018 15:52:00      0.000     0.000    0.0000
   02/06/2018 15:53:00      0.000     0.000    0.0000
   02/06/2018 15:54:00      0.000     0.000    0.0000
   02/06/2018 15:55:00      0.000     0.000    0.0000
   02/06/2018 15:56:00      0.000     0.000    0.0000
   02/06/2018 15:57:00      0.000     0.000    0.0000
   02/06/2018 15:58:00      0.000     0.000    0.0000
   02/06/2018 15:59:00      0.000     0.000    0.0000
   02/06/2018 16:00:00      0.000     0.000    0.0000
   02/06/2018 16:01:00      0.000     0.000    0.0000
   02/06/2018 16:02:00      0.000     0.000    0.0000
   02/06/2018 16:03:00      0.000     0.000    0.0000
   02/06/2018 16:04:00      0.000     0.000    0.0000
   02/06/2018 16:05:00      0.000     0.000    0.0000
   02/06/2018 16:06:00      0.000     0.000    0.0000
   02/06/2018 16:07:00      0.000     0.000    0.0000
   02/06/2018 16:08:00      0.000     0.000    0.0000
   02/06/2018 16:09:00      0.000     0.000    0.0000
   02/06/2018 16:10:00      0.000     0.000    0.0000
   02/06/2018 16:11:00      0.000     0.000    0.0000
   02/06/2018 16:12:00      0.000     0.000    0.0000
   02/06/2018 16:13:00      0.000     0.000    0.0000
   02/06/2018 16:14:00      0.000     0.000    0.0000
   02/06/2018 16:15:00      0.000     0.000    0.0000
   02/06/2018 16:16:00      0.000     0.000    0.0000
   02/06/2018 16:17:00      0.000     0.000    0.0000
   02/06/2018 16:18:00      0.000     0.000    0.0000
   02/06/2018 16:19:00      0.000     0.000    0.0000
   02/06/2018 16:20:00      0.000     0.000    0.0000
   02/06/2018 16:21:00      0.000     0.000    0.0000
   02/06/2018 16:22:00      0.000     0.000    0.0000
   02/06/2018 16:23:00      0.000     0.000    0.0000
   02/06/2018 16:24:00      0.000     0.000    0.0000
   02/06/2018 16:25:00      0.000     0.000    0.0000
   02/06/2018 16:26:00      0.000     0.000    0.0000
   02/06/2018 16:27:00      0.000     0.000    0.0000
   02/06/2018 16:28:00      0.000     0.000    0.0000
   02/06/2018 16:29:00      0.000     0.000    0.0000
   02/06/2018 16:30:00      0.000     0.000    0.0000
   02/06/2018 16:31:00      0.000     0.000    0.0000
   02/06/2018 16:32:00      0.000     0.000    0.0000
   02/06/2018 16:33:00      0.000     0.000    0.0000
   02/06/2018 16:34:00      0.000     0.000    0.0000
   02/06/2018 16:35:00      0.000     0.000    0.0000
   02/06/2018 16:36:00      0.000     0.000    0.0000
   02/06/2018 16:37:00      0.000     0.000    0.0000
   02/06/2018 16:38:00      0.000     0.000    0.0000
   02/06/2018 16:39:00      0.000     0.000    0.0000
   02/06/2018 16:40:00      0.000     0.000    0.0000
   02/06/2018 16:41:00      0.000     0.000    0.0000
   02/06/2018 16:42:00      0.000     0.000    0.0000
   02/06/2018 16:43:00      0.000     0.000    0.0000
   02/06/2018 16:44:00      0.000     0.000    0.0000
   02/06/2018 16:45:00      0.000     0.000    0.0000
   02/06/2018 16:46:00      0.000     0.000    0.0000
   02/06/2018 16:47:00      0.000     0.000    0.0000
   02/06/2018 16:48:00      0.000     0.000    0.0000
   02/06/2018 16:49:00      0.000     0.000    0.0000
   02/06/2018 16:50:00      0.000     0.000    0.0000
   02/06/2018 16:51:00      0.000     0.000    0.0000
   02/06/2018 16:52:00      0.000     0.000    0.0000
   02/06/2018 16:53:00      0.000     0.000    0.0000
   02/06/2018 16:54:00      0.000     0.000    0.0000
   02/06/2018 16:55:00      0.000     0.000    0.0000
   02/06/2018 16:56:00      0.000     0.000    0.0000
   02/06/2018 16:57:00      0.000     0.000    0.0000
   02/06/2018 16:58:00      0.000     0.000    0.0000
   02/06/2018 16:59:00      0.000     0.000    0.0000
   02/06/2018 17:00:00      0.000     0.000    0.0000
   02/06/2018 17:01:00      0.000     0.000    0.0000
   02/06/2018 17:02:00      0.000     0.000    0.0000
   02/06/2018 17:03:00      0.000     0.000    0.0000
   02/06/2018 17:04:00      0.000     0.000    0.0000
   02/06/2018 17:05:00      0.000     0.000    0.0000
   02/06/2018 17:06:00      0.000     0.000    0.0000
   02/06/2018 17:07:00      0.000     0.000    0.0000
   02/06/2018 17:08:00      0.000     0.000    0.0000
   02/06/2018 17:09:00      0.000     0.000    0.0000
   02/06/2018 17:10:00      0.000     0.000    0.0000
   02/06/2018 17:11:00      0.000     0.000    0.0000
   02/06/2018 17:12:00      0.000     0.000    0.0000
   02/06/2018 17:13:00      0.000     0.000    0.0000
   02/06/2018 17:14:00      0.000     0.000    0.0000
   02/06/2018 17:15:00      0.000     0.000    0.0000
   02/06/2018 17:16:00      0.000     0.000    0.0000
   02/06/2018 17:17:00      0.000     0.000    0.0000
   02/06/2018 17:18:00      0.000     0.000    0.0000
   02/06/2018 17:19:00      0.000     0.000    0.0000
   02/06/2018 17:20:00      0.000     0.000    0.0000
   02/06/2018 17:21:00      0.000     0.000    0.0000
   02/06/2018 17:22:00      0.000     0.000    0.0000
   02/06/2018 17:23:00      0.000     0.000    0.0000
   02/06/2018 17:24:00      0.000     0.000    0.0000
   02/06/2018 17:25:00      0.000     0.000    0.0000
   02/06/2018 17:26:00      0.000     0.000    0.0000
   02/06/2018 17:27:00      0.000     0.000    0.0000
   02/06/2018 17:28:00      0.000     0.000    0.0000
   02/06/2018 17:29:00      0.000     0.000    0.0000
   02/06/2018 17:30:00      0.000     0.000    0.0000
   02/06/2018 17:31:00      0.000     0.000    0.0000
   02/06/2018 17:32:00      0.000     0.000    0.0000
   02/06/2018 17:33:00      0.000     0.000    0.0000
   02/06/2018 17:34:00      0.000     0.000    0.0000
   02/06/2018 17:35:00      0.000     0.000    0.0000
   02/06/2018 17:36:00      0.000     0.000    0.0000
   02/06/2018 17:37:00      0.000     0.000    0.0000
   02/06/2018 17:38:00      0.000     0.000    0.0000
   02/06/2018 17:39:00      0.000     0.000    0.0000
   02/06/2018 17:40:00      0.000     0.000    0.0000
   02/06/2018 17:41:00      0.000     0.000    0.0000
   02/06/2018 17:42:00      0.000     0.000    0.0000
   02/06/2018 17:43:00      0.000     0.000    0.0000
   02/06/2018 17:44:00      0.000     0.000    0.0000
   02/06/2018 17:45:00      0.000     0.000    0.0000
   02/06/2018 17:46:00      0.000     0.000    0.0000
   02/06/2018 17:47:00      0.000     0.000    0.0000
   02/06/2018 17:48:00      0.000     0.000    0.0000
   02/06/2018 17:49:00      0.000     0.000    0.0000
   02/06/2018 17:50:00      0.000     0.000    0.0000
   02/06/2018 17:51:00      0.000     0.000    0.0000
   02/06/2018 17:52:00      0.000     0.000    0.0000
   02/06/2018 17:53:00      0.000     0.000    0.0000
   02/06/2018 17:54:00      0.000     0.000    0.0000
   02/06/2018 17:55:00      0.000     0.000    0.0000
   02/06/2018 17:56:00      0.000     0.000    0.0000
   02/06/2018 17:57:00      0.000     0.000    0.0000
   02/06/2018 17:58:00      0.000     0.000    0.0000
   02/06/2018 17:59:00      0.000     0.000    0.0000
   02/06/2018 18:00:00      0.000     0.000    0.0000
   02/06/2018 18:01:00      0.000     0.000    0.0000
   02/06/2018 18:02:00      0.000     0.000    0.0000
   02/06/2018 18:03:00      0.000     0.000    0.0000
   02/06/2018 18:04:00      0.000     0.000    0.0000
   02/06/2018 18:05:00      0.000     0.000    0.0000
   02/06/2018 18:06:00      0.000     0.000    0.0000
   02/06/2018 18:07:00      0.000     0.000    0.0000
   02/06/2018 18:08:00      0.000     0.000    0.0000
   02/06/2018 18:09:00      0.000     0.000    0.0000
   02/06/2018 18:10:00      0.000     0.000    0.0000
   02/06/2018 18:11:00      0.000     0.000    0.0000
   02/06/2018 18:12:00      0.000     0.000    0.0000
   02/06/2018 18:13:00      0.000     0.000    0.0000
   02/06/2018 18:14:00      0.000     0.000    0.0000
   02/06/2018 18:15:00      0.000     0.000    0.0000
   02/06/2018 18:16:00      0.000     0.000    0.0000
   02/06/2018 18:17:00      0.000     0.000    0.0000
   02/06/2018 18:18:00      0.000     0.000    0.0000
   02/06/2018 18:19:00      0.000     0.000    0.0000
   02/06/2018 18:20:00      0.000     0.000    0.0000
   02/06/2018 18:21:00      0.000     0.000    0.0000
   02/06/2018 18:22:00      0.000     0.000    0.0000
   02/06/2018 18:23:00      0.000     0.000    0.0000
   02/06/2018 18:24:00      0.000     0.000    0.0000
   02/06/2018 18:25:00      0.000     0.000    0.0000
   02/06/2018 18:26:00      0.000     0.000    0.0000
   02/06/2018 18:27:00      0.000     0.000    0.0000
   02/06/2018 18:28:00      0.000     0.000    0.0000
   02/06/2018 18:29:00      0.000     0.000    0.0000
   02/06/2018 18:30:00      0.000     0.000    0.0000
   02/06/2018 18:31:00      0.000     0.000    0.0000
   02/06/2018 18:32:00      0.000     0.000    0.0000
   02/06/2018 18:33:00      0.000     0.000    0.0000
   02/06/2018 18:34:00      0.000     0.000    0.0000
   02/06/2018 18:35:00      0.000     0.000    0.0000
   02/06/2018 18:36:00      0.000     0.000    0.0000
   02/06/2018 18:37:00      0.000     0.000    0.0000
   02/06/2018 18:38:00      0.000     0.000    0.0000
   02/06/2018 18:39:00      0.000     0.000    0.0000
   02/06/2018 18:40:00      0.000     0.000    0.0000
   02/06/2018 18:41:00      0.000     0.000    0.0000
   02/06/2018 18:42:00      0.000     0.000    0.0000
   02/06/2018 18:43:00      0.000     0.000    0.0000
   02/06/2018 18:44:00      0.000     0.000    0.0000
   02/06/2018 18:45:00      0.000     0.000    0.0000
   02/06/2018 18:46:00      0.000     0.000    0.0000
   02/06/2018 18:47:00      0.000     0.000    0.0000
   02/06/2018 18:48:00      0.000     0.000    0.0000
   02/06/2018 18:49:00      0.000     0.000    0.0000
   02/06/2018 18:50:00      0.000     0.000    0.0000
   02/06/2018 18:51:00      0.000     0.000    0.0000
   02/06/2018 18:52:00      0.000     0.000    0.0000
   02/06/2018 18:53:00      0.000     0.000    0.0000
   02/06/2018 18:54:00      0.000     0.000    0.0000
   02/06/2018 18:55:00      0.000     0.000    0.0000
   02/06/2018 18:56:00      0.000     0.000    0.0000
   02/06/2018 18:57:00      0.000     0.000    0.0000
   02/06/2018 18:58:00      0.000     0.000    0.0000
   02/06/2018 18:59:00      0.000     0.000    0.0000
   02/06/2018 19:00:00      0.000     0.000    0.0000
   02/06/2018 19:01:00      0.000     0.000    0.0000
   02/06/2018 19:02:00      0.000     0.000    0.0000
   02/06/2018 19:03:00      0.000     0.000    0.0000
   02/06/2018 19:04:00      0.000     0.000    0.0000
   02/06/2018 19:05:00      0.000     0.000    0.0000
   02/06/2018 19:06:00      0.000     0.000    0.0000
   02/06/2018 19:07:00      0.000     0.000    0.0000
   02/06/2018 19:08:00      0.000     0.000    0.0000
   02/06/2018 19:09:00      0.000     0.000    0.0000
   02/06/2018 19:10:00      0.000     0.000    0.0000
   02/06/2018 19:11:00      0.000     0.000    0.0000
   02/06/2018 19:12:00      0.000     0.000    0.0000
   02/06/2018 19:13:00      0.000     0.000    0.0000
   02/06/2018 19:14:00      0.000     0.000    0.0000
   02/06/2018 19:15:00      0.000     0.000    0.0000
   02/06/2018 19:16:00      0.000     0.000    0.0000
   02/06/2018 19:17:00      0.000     0.000    0.0000
   02/06/2018 19:18:00      0.000     0.000    0.0000
   02/06/2018 19:19:00      0.000     0.000    0.0000
   02/06/2018 19:20:00      0.000     0.000    0.0000
   02/06/2018 19:21:00      0.000     0.000    0.0000
   02/06/2018 19:22:00      0.000     0.000    0.0000
   02/06/2018 19:23:00      0.000     0.000    0.0000
   02/06/2018 19:24:00      0.000     0.000    0.0000
   02/06/2018 19:25:00      0.000     0.000    0.0000
   02/06/2018 19:26:00      0.000     0.000    0.0000
[...]
   02/06/2018 21:14:00      1.403     0.000     1.000     1.000
   02/06/2018 21:15:00      1.404     0.000     1.000     1.000
   02/06/2018 21:16:00      1.395     0.000     1.000     1.000
   02/06/2018 21:17:00      1.396     0.000     1.000     1.000
   02/06/2018 21:18:00      1.396     0.000     1.000     1.000
   02/06/2018 21:19:00      1.396     0.000     1.000     1.000
   02/06/2018 21:20:00      1.397     0.000     1.000     1.000
   02/06/2018 21:21:00      1.397     0.000     1.000     1.000
   02/06/2018 21:22:00      1.398     0.000     1.000     1.000
   02/06/2018 21:23:00      1.398     0.000     1.000     1.000
   02/06/2018 21:24:00      1.398     0.000     1.000     1.000
   02/06/2018 21:25:00      1.399     0.000     1.000     1.000
   02/06/2018 21:26:00      1.399     0.000     1.000     1.000
   02/06/2018 21:27:00      1.400     0.000     1.000     1.000
   02/06/2018 21:28:00      1.400     0.000     1.000     1.000
   02/06/2018 21:29:00      1.400     0.000     1.000     1.000
   02/06/2018 21:30:00      1.401     0.000     1.000     1.000
   02/06/2018 21:31:00      1.288     0.000     1.000     1.000
   02/06/2018 21:32:00      1.289     0.000     1.000     1.000
   02/06/2018 21:33:00      1.290     0.000     1.000     1.000
   02/06/2018 21:34:00      1.291     0.000     1.000     1.000
   02/06/2018 21:35:00      1.292     0.000     1.000     1.000
   02/06/2018 21:36:00      1.292     0.000     1.000     1.000
   02/06/2018 21:37:00      1.293     0.000     1.000     1.000
   02/06/2018 21:38:00      1.294     0.000     1.000     1.000
   02/06/2018 21:39:00      1.295     0.000     1.000     1.000
   02/06/2018 21:40:00      1.296     0.000     1.000     1.000
   02/06/2018 21:41:00      1.296     0.000     1.000     1.000
   02/06/2018 21:42:00      1.297     0.000     1.000     1.000
   02/06/2018 21:43:00      1.298     0.000     1.000     1.000
   02/06/2018 21:44:00      1.299     0.000     1.000     1.000
   02/06/2018 21:45:00      1.300     0.000     1.000     1.000
   02/06/2018 21:46:00      1.947     0.000     1.000     1.000
   02/06/2018 21:47:00      1.947     0.000     1.000     1.000
   02/06/2018 21:48:00      1.947     0.000     1.000     1.000
   02/06/2018 21:49:00      1.947     0.000     1.000     1.000
   02/06/2018 21:50:00      1.948     0.000     1.000     1.000
   02/06/2018 21:51:00      1.948     0.000     1.000     1.000
   02/06/2018 21:52:00      1.948     0.000     1.000     1.000
   02/06/2018 21:53:00      1.949     0.000     1.000     1.000
   02/06/2018 21:54:00      1.949     0.000     1.000     1.000
   02/06/2018 21:55:00      1.949     0.000     1.000     1.000
   02/06/2018 21:56:00      1.950     0.000     1.000     1.000
   02/06/2018 21:57:00      1.950     0.000     1.000     1.000
   02/06/2018 21:58:00      1.950     0.000     1.000     1.000
   02/06/2018 21:59:00      1.951     0.000     1.000     1.000
   02/06/2018 22:00:00      1.951     0.000     1.000     1.000
   02/06/2018 22:01:00      1.386     0.000     1.000     1.000
   02/06/2018 22:02:00      1.387     0.000     1.000     1.000
   02/06/2018 22:03:00      1.387     0.000     1.000     1.000
   02/06/2018 22:04:00      1.387     0.000     1.000     1.000
   02/06/2018 22:05:00      1.388     0.000     1.000     1.000
   02/06/2018 22:06:00      1.388     0.000     1.000     1.000
   02/06/2018 22:07:00      1.389     0.000     1.000     1.000
   02/06/2018 22:08:00      1.389     0.000     1.000     1.000
   02/06/2018 22:09:00      1.389     0.000     1.000     1.000
   02/06/2018 22:10:00      1.390     0.000     1.000     1.000
   02/06/2018 22:11:00      1.390     0.000     1.000     1.000
   02/06/2018 22:12:00      1.391     0.000     1.000     1.000
   02/06/2018 22:13:00      1.391     0.000     1.000     1.000
   02/06/2018 22:14:00      1.391     0.000     1.000     1.000
   02/06/2018 22:15:00      1.392     0.000     1.000     1.000
   02/06/2018 22:16:00      1.298     0.000     1.000     1.000
   02/06/2018 22:17:00      1.299     0.000     1.000     1.000
   02/06/2018 22:18:00      1.300     0.000     1.000     1.000
   02/06/2018 22:19:00      1.301     0.000     1.000     1.000
   02/06/2018 22:20:00      1.302     0.000     1.000     1.000
   02/06/2018 22:21:00      1.302     0.000     1.000     1.000
   02/06/2018 22:22:00      1.303     0.000     1.000     1.000
   02/06/2018 22:23:00      1.304     0.000     1.000     1.000
   02/06/2018 22:24:00      1.305     0.000     1.000     1.000
   02/06/2018 22:25:00      1.305     0.000     1.000     1.000
   02/06/2018 22:26:00      1.306     0.000     1.000     1.000
   02/06/2018 22:27:00      1.307     0.000     1.000     1.000
   02/06/2018 22:28:00      1.308     0.000     1.000     1.000
   02/06/2018 22:29:00      1.308     0.000     1.000     1.000
   02/06/2018 22:30:00      1.309     0.000     1.000     1.000
   02/06/2018 22:31:00      1.340     0.000     1.000     1.000
   02/06/2018 22:32:00      1.340     0.000     1.000     1.000
   02/06/2018 22:33:00      1.341     0.000     1.000     1.000
   02/06/2018 22:34:00      1.342     0.000     1.000     1.000
   02/06/2018 22:35:00      1.342     0.000     1.000     1.000
   02/06/2018 22:36:00      1.343     0.000     1.000     1.000
   02/06/2018 22:37:00      1.343     0.000     1.000     1.000
   02/06/2018 22:38:00      1.344     0.000     1.000     1.000
   02/06/2018 22:39:00      1.345     0.000     1.000     1.000
   02/06/2018 22:40:00      1.345     0.000     1.000     1.000
   02/06/2018 22:41:00      1.346     0.000     1.000     1.000
   02/06/2018 22:42:00      1.346     0.000     1.000     1.000
   02/06/2018 22:43:00      1.347     0.000     1.000     1.000
   02/06/2018 22:44:00      1.347     0.000     1.000     1.000
   02/06/2018 22:45:00      1.348     0.000     1.000     1.000
   02/06/2018 22:46:00      1.363     0.000     1.000     1.000
   02/06/2018 22:47:00      1.364     0.000     1.000     1.000
   02/06/2018 22:48:00      1.364     0.000     1.000     1.000
   02/06/2018 22:49:00      1.365     0.000     1.000     1.000
   02/06/2018 22:50:00      1.365     0.000     1.000     1.000
   02/06/2018 22:51:00      1.366     0.000     1.000     1.000
   02/06/2018 22:52:00      1.366     0.000     1.000     1.000
   02/06/2018 22:53:00      1.367     0.000     1.000     1.000
   02/06/2018 22:54:00      1.367     0.000     1.000     1.000
   02/06/2018 22:55:00      1.368     0.000     1.000     1.000
   02/06/2018 22:56:00      1.368     0.000     1.000     1.000
   02/06/2018 22:57:00      1.369     0.000     1.000     1.000
   02/06/2018 22:58:00      1.369     0.000     1.000     1.000
   02/06/2018 22:59:00      1.369     0.000     1.000     1.000
   02/06/2018 23:00:00      1.370     0.000     1.000     1.000
   02/06/2018 23:01:00      1.407     0.000     1.000     1.000
   02/06/2018 23:02:00      1.407     0.000     1.000     1.000
   02/06/2018 23:03:00      1.407     0.000     1.000     1.000
   02/06/2018 23:04:00      1.407     0.000     1.000     1.000
   02/06/2018 23:05:00      1.408     0.000     1.000     1.000
   02/06/2018 23:06:00      1.408     0.000     1.000     1.000
   02/06/2018 23:07:00      1.408     0.000     1.000     1.000
   02/06/2018 23:08:00      1.408     0.000     1.000     1.000
   02/06/2018 23:09:00      1.409     0.000     1.000     1.000
   02/06/2018 23:10:00      1.409     0.000     1.000     1.000
   02/06/2018 23:11:00      1.409     0.000     1.000     1.000
   02/06/2018 23:12:00      1.410     0.000     1.000     1.000
   02/06/2018 23:13:00      1.410     0.000     1.000     1.000
   02/06/2018 23:14:00      1.410     0.000     1.000     1.000
   02/06/2018 23:15:00      1.410     0.000     1.000     1.000
   02/06/2018 23:16:00      1.360     0.000     1.000     1.000
   02/06/2018 23:17:00      1.360     0.000     1.000     1.000
   02/06/2018 23:18:00      1.361     0.000     1.000     1.000
   02/06/2018 23:19:00      1.361     0.000     1.000     1.000
   02/06/2018 23:20:00      1.362     0.000     1.000     1.000
   02/06/2018 23:21:00      1.362     0.000     1.000     1.000
   02/06/2018 23:22:00      1.363     0.000     1.000     1.000
   02/06/2018 23:23:00      1.363     0.000     1.000     1.000
   02/06/2018 23:24:00      1.363     0.000     1.000     1.000
   02/06/2018 23:25:00      1.364     0.000     1.000     1.000
   02/06/2018 23:26:00      1.364     0.000     1.000     1.000
   02/06/2018 23:27:00      1.365     0.000     1.000     1.000
   02/06/2018 23:28:00      1.365     0.000     1.000     1.000
   02/06/2018 23:29:00      1.366     0.000     1.000     1.000
   02/06/2018 23:30:00      1.366     0.000     1.000     1.000
   02/06/2018 23:31:00      1.360     0.000     1.000     1.000
   02/06/2018 23:32:00      1.361     0.000     1.000     1.000
   02/06/2018 23:33:00      1.361     0.000     1.000     1.000
   02/06/2018 23:34:00      1.362     0.000     1.000     1.000
   02/06/2018 23:35:00      1.362     0.000     1.000     1.000
   02/06/2018 23:36:00      1.363     0.000     1.000     1.000
   02/06/2018 23:37:00      1.363     0.000     1.000     1.000
   02/06/2018 23:38:00      1.364     0.000     1.000     1.000
   02/06/2018 23:39:00      1.364     0.000     1.000     1.000
   02/06/2018 23:40:00      1.365     0.000     1.000     1.000
   02/06/2018 23:41:00      1.365     0.000     1.000     1.000
   02/06/2018 23:42:00      1.365     0.000     1.000     1.000
   02/06/2018 23:43:00      1.366     0.000     1.000     1.000
   02/06/2018 23:44:00      1.366     0.000     1.000     1.000
   02/06/2018 23:45:00      1.367     0.000     1.000     1.000
  
  
  **************************        Volume         Depth
  Runoff Quantity Continuity     acre-feet        inches
  **************************     ---------       -------
  Total Precipitation ......        44.917         3.850
  Evaporation Loss .........         0.000         0.000
  Infiltration Loss ........        27.438         2.352
  Surface Runoff ...........        17.387         1.490
  Final Storage ............         0.135         0.012
  Continuity Error (%) .....        -0.096
  
  
  **************************        Volume        Volume
  Flow Routing Continuity        acre-feet      10^6 gal
  **************************     ---------     ---------
  Dry Weather Inflow .......         0.000         0.000
  Wet Weather Inflow .......        17.406         5.672
  Groundwater Inflow .......         0.000         0.000
  RDII Inflow ..............         0.000         0.000
  External Inflow ..........         0.000         0.000
  External Outflow .........         6.180         2.014
  Flooding Loss ............         4.365         1.422
  Evaporation Loss .........         0.000         0.000
  Exfiltration Loss ........         0.000         0.000
  Initial Stored Volume ....         2.066         0.673
  Final Stored Volume ......         9.122         2.972
  Continuity Error (%) .....        -0.996
  
  
  *************************
  Highest Continuity Errors
  *************************
  Node J2 (-2.39%)
  
  
  ***************************
  Time-Step Critical Elements
  ***************************
  None
  
  
  ********************************
  Highest Flow Instability Indexes
  ********************************
  Link R2 (11)
  Link R1 (11)
  Link C2 (6)
  Link C3 (3)
  
  
  *************************
  Routing Time Step Summary
  *************************
  Minimum Time Step           :     4.60 sec
  Average Time Step           :    10.00 sec
  Maximum Time Step           :    10.00 sec
  Percent in Steady State     :     0.00
  Average Iterations per Step :     4.65
  Percent Not Converging      :    41.31
  
  
  ***************************
  Subcatchment Runoff Summary
  ***************************
  
  --------------------------------------------------------------------------------------------------------
                            Total      Total      Total      Total      Total       Total     Peak  Runoff
                           Precip      Runon       Evap      Infil     Runoff      Runoff   Runoff   Coeff
  Subcatchment                 in         in         in         in         in    10^6 gal      CFS
  --------------------------------------------------------------------------------------------------------
  S1                         3.85       0.00       0.00       2.36       1.49        2.83   132.25   0.386
  S2                         3.85       0.00       0.00       2.35       1.49        2.84   132.47   0.388
  
  
  ******************
  Node Depth Summary
  ******************
  
  ---------------------------------------------------------------------------------
                                 Average  Maximum  Maximum  Time of Max    Reported
                                   Depth    Depth      HGL   Occurrence   Max Depth
  Node                 Type         Feet     Feet     Feet  days hr:min        Feet
  ---------------------------------------------------------------------------------
  J2                   JUNCTION     2.90     4.00    94.00     0  06:24        4.00
  J3                   JUNCTION     1.72     2.00    90.00     0  06:01        2.00
  Out1                 OUTFALL      0.75     0.80    87.80     0  06:09        0.80
  St1                  STORAGE      3.47     5.00    95.00     0  06:45        5.00
  St2                  STORAGE      3.40     5.00    95.00     0  06:43        5.00
  
  
  *******************
  Node Inflow Summary
  *******************
  
  -------------------------------------------------------------------------------------------------
                                  Maximum  Maximum                  Lateral       Total        Flow
                                  Lateral    Total  Time of Max      Inflow      Inflow     Balance
                                   Inflow   Inflow   Occurrence      Volume      Volume       Error
  Node                 Type           CFS      CFS  days hr:min    10^6 gal    10^6 gal     Percent
  -------------------------------------------------------------------------------------------------
  J2                   JUNCTION      0.00     7.45     0  07:00           0        2.85      -2.330
  J3                   JUNCTION      0.00     4.63     0  06:29           0        2.47       0.109
  Out1                 OUTFALL       0.00     3.47     0  06:20           0        2.01       0.000
  St1                  STORAGE     132.25   132.25     0  06:00        2.83        3.17      -0.010
  St2                  STORAGE     132.47   132.47     0  06:00        2.84        3.18       0.217
  
  
  **********************
  Node Surcharge Summary
  **********************
  
  Surcharging occurs when water rises above the top of the highest conduit.
  ---------------------------------------------------------------------
                                               Max. Height   Min. Depth
                                   Hours       Above Crown    Below Rim
  Node                 Type      Surcharged           Feet         Feet
  ---------------------------------------------------------------------
  J2                   JUNCTION       18.18          3.000        0.000
  J3                   JUNCTION       19.49          1.000        0.000
  
  
  *********************
  Node Flooding Summary
  *********************
  
  Flooding refers to all water that overflows a node, whether it ponds or not.
  --------------------------------------------------------------------------
                                                             Total   Maximum
                                 Maximum   Time of Max       Flood    Ponded
                        Hours       Rate    Occurrence      Volume     Depth
  Node                 Flooded       CFS   days hr:min    10^6 gal      Feet
  --------------------------------------------------------------------------
  J2                      7.74      2.82      0  07:00       0.440     0.000
  J3                     17.73      1.16      0  06:30       0.457     0.000
  St1                     2.50     20.29      0  06:45       0.276     0.000
  St2                     1.38     20.75      0  06:43       0.250     0.000
  
  
  **********************
  Storage Volume Summary
  **********************
  
  --------------------------------------------------------------------------------------------------
                         Average     Avg  Evap Exfil       Maximum     Max    Time of Max    Maximum
                          Volume    Pcnt  Pcnt  Pcnt        Volume    Pcnt     Occurrence    Outflow
  Storage Unit          1000 ft3    Full  Loss  Loss      1000 ft3    Full    days hr:min        CFS
  --------------------------------------------------------------------------------------------------
  St1                    208.176      69     0     0       300.000     100       0  06:45       3.46
  St2                    204.171      68     0     0       300.000     100       0  06:43       4.10
  
  
  ***********************
  Outfall Loading Summary
  ***********************
  
  -----------------------------------------------------------
                         Flow       Avg       Max       Total
                         Freq      Flow      Flow      Volume
  Outfall Node           Pcnt       CFS       CFS    10^6 gal
  -----------------------------------------------------------
  Out1                  99.96      3.15      3.47       2.014
  -----------------------------------------------------------
  System                99.96      3.15      3.47       2.014
  
  
  ********************
  Link Flow Summary
  ********************
  
  -----------------------------------------------------------------------------
                                 Maximum  Time of Max   Maximum    Max/    Max/
                                  |Flow|   Occurrence   |Veloc|    Full    Full
  Link                 Type          CFS  days hr:min    ft/sec    Flow   Depth
  -----------------------------------------------------------------------------
  C2                   CONDUIT      4.63     0  06:29      5.90    1.41    1.00
  C3                   CONDUIT      3.47     0  06:20      4.67    1.50    0.90
  R1                   ORIFICE      3.46     0  11:45                          
  R2                   ORIFICE      4.10     0  06:43                          
  
  
  ***************************
  Flow Classification Summary
  ***************************
  
  -------------------------------------------------------------------------------------
                      Adjusted    ---------- Fraction of Time in Flow Class ---------- 
                       /Actual         Up    Down  Sub   Sup   Up    Down  Norm  Inlet 
  Conduit               Length    Dry  Dry   Dry   Crit  Crit  Crit  Crit  Ltd   Ctrl  
  -------------------------------------------------------------------------------------
  C2                      1.00   0.00  0.00  0.00  1.00  0.00  0.00  0.00  0.19  0.00
  C3                      1.00   0.00  0.00  0.00  1.00  0.00  0.00  0.00  0.00  0.00
  
  
  *************************
  Conduit Surcharge Summary
  *************************
  
  ----------------------------------------------------------------------------
                                                           Hours        Hours 
                         --------- Hours Full --------   Above Full   Capacity
  Conduit                Both Ends  Upstream  Dnstream   Normal Flow   Limited
  ----------------------------------------------------------------------------
  C2                         18.17     18.17     19.49     17.79        17.79
  C3                          0.01     19.49      0.01     20.09         0.01
  

  Analysis begun on:  Sun Jul 28 19:56:06 2019
  Analysis ended on:  Sun Jul 28 19:56:08 2019
  Total elapsed time: 00:00:02