
  EPA STORM WATER MANAGEMENT MODEL - VERSION 5.1 (Build 5.2.0.dev3)
  --------------------------------------------------------------

  
  *********************************************************
  NOTE: The summary statistics displayed in this report are
  based on results found at every computational time step,  
  not just on results from each reporting time step.
  *********************************************************
  
  ****************
  Analysis Options
  ****************
  Flow Units ............... CFS
  Process Models:
    Rainfall/Runoff ........ YES
    RDII ................... NO
    Snowmelt ............... NO
    Groundwater ............ NO
    Flow Routing ........... YES
    Ponding Allowed ........ NO
    Water Quality .......... NO
  Infiltration Method ...... MODIFIED_GREEN_AMPT
  Flow Routing Method ...... DYNWAVE
  Starting Date ............ 02/06/2018 00:00:00
  Ending Date .............. 02/07/2018 00:00:00
  Antecedent Dry Days ...... 0.0
  Report Time Step ......... 00:01:00
  Wet Time Step ............ 00:05:00
  Dry Time Step ............ 01:00:00
  Routing Time Step ........ 10.00 sec
  Variable Time Step ....... YES
  Maximum Trials ........... 8
  Number of Threads ........ 1
  Head Tolerance ........... 0.005000 ft
  
  
  *********************
  Control Actions Taken
  *********************
   02/06/2018: 00:00:00 Link R1 setting changed to   0.00 by Control ToolkitAPI
   02/06/2018: 00:00:00 Link R2 setting changed to   0.00 by Control ToolkitAPI
   02/06/2018: 00:00:00 Link R1 setting changed to   0.60 by Control ToolkitAPI
   02/06/2018: 00:00:00 Link R2 setting changed to   1.00 by Control ToolkitAPI
   02/06/2018: 00:15:03 Link R1 setting changed to   0.63 by Control ToolkitAPI
   02/06/2018: 00:15:03 Link R2 setting changed to   1.00 by Control ToolkitAPI
   02/06/2018: 00:30:03 Link R1 setting changed to   0.61 by Control ToolkitAPI
   02/06/2018: 00:30:03 Link R2 setting changed to   1.00 by Control ToolkitAPI
   02/06/2018: 00:45:03 Link R1 setting changed to   0.58 by Control ToolkitAPI
   02/06/2018: 00:45:03 Link R2 setting changed to   1.00 by Control ToolkitAPI
   02/06/2018: 01:00:03 Link R1 setting changed to   0.64 by Control ToolkitAPI
   02/06/2018: 01:00:03 Link R2 setting changed to   1.00 by Control ToolkitAPI
   02/06/2018: 01:15:03 Link R1 setting changed to   0.64 by Control ToolkitAPI
   02/06/2018: 01:15:03 Link R2 setting changed to   1.00 by Control ToolkitAPI
   02/06/2018: 01:30:03 Link R1 setting changed to   0.65 by Control ToolkitAPI
   02/06/2018: 01:30:03 Link R2 setting changed to   1.00 by Control ToolkitAPI
   02/06/2018: 01:45:03 Link R1 setting changed to   0.66 by Control ToolkitAPI
   02/06/2018: 01:45:03 Link R2 setting changed to   1.00 by Control ToolkitAPI
   02/06/2018: 02:00:03 Link R1 setting changed to   0.72 by Control ToolkitAPI
   02/06/2018: 02:00:03 Link R2 setting changed to   1.00 by Control ToolkitAPI
   02/06/2018: 02:15:03 Link R1 setting changed to   0.73 by Control ToolkitAPI
   02/06/2018: 02:15:03 Link R2 setting changed to   1.00 by Control ToolkitAPI
   02/06/2018: 02:30:03 Link R1 setting changed to   0.73 by Control ToolkitAPI
   02/06/2018: 02:30:03 Link R2 setting changed to   1.00 by Control ToolkitAPI
   02/06/2018: 02:45:03 Link R1 setting changed to   0.69 by Control ToolkitAPI
   02/06/2018: 02:45:03 Link R2 setting changed to   1.00 by Control ToolkitAPI
   02/06/2018: 03:00:03 Link R1 setting changed to   0.70 by Control ToolkitAPI
   02/06/2018: 03:00:03 Link R2 setting changed to   1.00 by Control ToolkitAPI
   02/06/2018: 03:15:03 Link R1 setting changed to   0.67 by Control ToolkitAPI
   02/06/2018: 03:15:03 Link R2 setting changed to   1.00 by Control ToolkitAPI
   02/06/2018: 03:30:03 Link R1 setting changed to   0.62 by Control ToolkitAPI
   02/06/2018: 03:30:03 Link R2 setting changed to   1.00 by Control ToolkitAPI
   02/06/2018: 03:45:03 Link R1 setting changed to   0.58 by Control ToolkitAPI
   02/06/2018: 03:45:03 Link R2 setting changed to   1.00 by Control ToolkitAPI
   02/06/2018: 04:00:03 Link R1 setting changed to   0.60 by Control ToolkitAPI
   02/06/2018: 04:00:03 Link R2 setting changed to   1.00 by Control ToolkitAPI
   02/06/2018: 04:15:03 Link R1 setting changed to   0.54 by Control ToolkitAPI
   02/06/2018: 04:15:03 Link R2 setting changed to   1.00 by Control ToolkitAPI
   02/06/2018: 04:30:03 Link R1 setting changed to   0.51 by Control ToolkitAPI
   02/06/2018: 04:30:03 Link R2 setting changed to   1.00 by Control ToolkitAPI
   02/06/2018: 04:45:03 Link R1 setting changed to   0.44 by Control ToolkitAPI
   02/06/2018: 04:45:03 Link R2 setting changed to   1.00 by Control ToolkitAPI
   02/06/2018: 05:00:03 Link R1 setting changed to   0.46 by Control ToolkitAPI
   02/06/2018: 05:00:03 Link R2 setting changed to   1.00 by Control ToolkitAPI
   02/06/2018: 05:15:03 Link R1 setting changed to   0.50 by Control ToolkitAPI
   02/06/2018: 05:15:03 Link R2 setting changed to   1.00 by Control ToolkitAPI
   02/06/2018: 05:30:03 Link R1 setting changed to   0.52 by Control ToolkitAPI
   02/06/2018: 05:30:03 Link R2 setting changed to   1.00 by Control ToolkitAPI
   02/06/2018: 05:45:03 Link R1 setting changed to   0.55 by Control ToolkitAPI
   02/06/2018: 05:45:03 Link R2 setting changed to   1.00 by Control ToolkitAPI
   02/06/2018: 06:00:06 Link R1 setting changed to   0.53 by Control ToolkitAPI
   02/06/2018: 06:00:06 Link R2 setting changed to   1.00 by Control ToolkitAPI
   02/06/2018: 06:15:06 Link R1 setting changed to   0.53 by Control ToolkitAPI
   02/06/2018: 06:15:06 Link R2 setting changed to   1.00 by Control ToolkitAPI
   02/06/2018: 06:30:06 Link R1 setting changed to   0.49 by Control ToolkitAPI
   02/06/2018: 06:30:06 Link R2 setting changed to   1.00 by Control ToolkitAPI
   02/06/2018: 06:45:06 Link R1 setting changed to   0.53 by Control ToolkitAPI
   02/06/2018: 06:45:06 Link R2 setting changed to   1.00 by Control ToolkitAPI
   02/06/2018: 07:00:06 Link R1 setting changed to   0.55 by Control ToolkitAPI
   02/06/2018: 07:00:06 Link R2 setting changed to   1.00 by Control ToolkitAPI
   02/06/2018: 07:15:06 Link R1 setting changed to   0.62 by Control ToolkitAPI
   02/06/2018: 07:15:06 Link R2 setting changed to   1.00 by Control ToolkitAPI
   02/06/2018: 07:30:06 Link R1 setting changed to   0.64 by Control ToolkitAPI
   02/06/2018: 07:30:06 Link R2 setting changed to   1.00 by Control ToolkitAPI
   02/06/2018: 07:45:06 Link R1 setting changed to   0.64 by Control ToolkitAPI
   02/06/2018: 07:45:06 Link R2 setting changed to   1.00 by Control ToolkitAPI
   02/06/2018: 08:00:06 Link R1 setting changed to   0.57 by Control ToolkitAPI
   02/06/2018: 08:00:06 Link R2 setting changed to   1.00 by Control ToolkitAPI
   02/06/2018: 08:15:06 Link R1 setting changed to   0.52 by Control ToolkitAPI
   02/06/2018: 08:15:06 Link R2 setting changed to   1.00 by Control ToolkitAPI
   02/06/2018: 08:30:06 Link R1 setting changed to   0.56 by Control ToolkitAPI
   02/06/2018: 08:30:06 Link R2 setting changed to   1.00 by Control ToolkitAPI
   02/06/2018: 08:45:06 Link R1 setting changed to   0.59 by Control ToolkitAPI
   02/06/2018: 08:45:06 Link R2 setting changed to   1.00 by Control ToolkitAPI
   02/06/2018: 09:00:06 Link R1 setting changed to   0.58 by Control ToolkitAPI
   02/06/2018: 09:00:06 Link R2 setting changed to   1.00 by Control ToolkitAPI
   02/06/2018: 09:15:06 Link R1 setting changed to   0.61 by Control ToolkitAPI
   02/06/2018: 09:15:06 Link R2 setting changed to   1.00 by Control ToolkitAPI
   02/06/2018: 09:30:06 Link R1 setting changed to   0.66 by Control ToolkitAPI
   02/06/2018: 09:30:06 Link R2 setting changed to   1.00 by Control ToolkitAPI
   02/06/2018: 09:45:06 Link R1 setting changed to   0.61 by Control ToolkitAPI
   02/06/2018: 09:45:06 Link R2 setting changed to   1.00 by Control ToolkitAPI
   02/06/2018: 10:00:06 Link R1 setting changed to   0.67 by Control ToolkitAPI
   02/06/2018: 10:00:06 Link R2 setting changed to   1.00 by Control ToolkitAPI
   02/06/2018: 10:15:06 Link R1 setting changed to   0.71 by Control ToolkitAPI
   02/06/2018: 10:15:06 Link R2 setting changed to   1.00 by Control ToolkitAPI
   02/06/2018: 10:30:06 Link R1 setting changed to   0.76 by Control ToolkitAPI
   02/06/2018: 10:30:06 Link R2 setting changed to   1.00 by Control ToolkitAPI
   02/06/2018: 10:45:06 Link R1 setting changed to   0.82 by Control ToolkitAPI
   02/06/2018: 10:45:06 Link R2 setting changed to   1.00 by Control ToolkitAPI
   02/06/2018: 11:00:06 Link R1 setting changed to   0.81 by Control ToolkitAPI
   02/06/2018: 11:00:06 Link R2 setting changed to   1.00 by Control ToolkitAPI
   02/06/2018: 11:15:06 Link R1 setting changed to   0.82 by Control ToolkitAPI
   02/06/2018: 11:15:06 Link R2 setting changed to   1.00 by Control ToolkitAPI
   02/06/2018: 11:30:06 Link R1 setting changed to   0.87 by Control ToolkitAPI
   02/06/2018: 11:30:06 Link R2 setting changed to   1.00 by Control ToolkitAPI
   02/06/2018: 11:45:06 Link R1 setting changed to   0.84 by Control ToolkitAPI
   02/06/2018: 11:45:06 Link R2 setting changed to   1.00 by Control ToolkitAPI
   02/06/2018: 12:00:06 Link R1 setting changed to   0.86 by Control ToolkitAPI
   02/06/2018: 12:00:06 Link R2 setting changed to   1.00 by Control ToolkitAPI
   02/06/2018: 12:15:06 Link R1 setting changed to   0.81 by Control ToolkitAPI
   02/06/2018: 12:15:06 Link R2 setting changed to   1.00 by Control ToolkitAPI
   02/06/2018: 12:30:06 Link R1 setting changed to   0.84 by Control ToolkitAPI
   02/06/2018: 12:30:06 Link R2 setting changed to   1.00 by Control ToolkitAPI
   02/06/2018: 12:45:06 Link R1 setting changed to   0.88 by Control ToolkitAPI
   02/06/2018: 12:45:06 Link R2 setting changed to   1.00 by Control ToolkitAPI
   02/06/2018: 13:00:06 Link R1 setting changed to   0.86 by Control ToolkitAPI
   02/06/2018: 13:00:06 Link R2 setting changed to   1.00 by Control ToolkitAPI
   02/06/2018: 13:15:06 Link R1 setting changed to   0.88 by Control ToolkitAPI
   02/06/2018: 13:15:06 Link R2 setting changed to   1.00 by Control ToolkitAPI
   02/06/2018: 13:30:06 Link R1 setting changed to   0.88 by Control ToolkitAPI
   02/06/2018: 13:30:06 Link R2 setting changed to   1.00 by Control ToolkitAPI
   02/06/2018: 13:45:06 Link R1 setting changed to   0.89 by Control ToolkitAPI
   02/06/2018: 13:45:06 Link R2 setting changed to   1.00 by Control ToolkitAPI
   02/06/2018: 14:00:06 Link R1 setting changed to   0.89 by Control ToolkitAPI
   02/06/2018: 14:00:06 Link R2 setting changed to   1.00 by Control ToolkitAPI
   02/06/2018: 14:15:06 Link R1 setting changed to   0.83 by Control ToolkitAPI
   02/06/2018: 14:15:06 Link R2 setting changed to   1.00 by Control ToolkitAPI
   02/06/2018: 14:30:06 Link R1 setting changed to   0.80 by Control ToolkitAPI
   02/06/2018: 14:30:06 Link R2 setting changed to   1.00 by Control ToolkitAPI
   02/06/2018: 14:45:06 Link R1 setting changed to   0.82 by Control ToolkitAPI
   02/06/2018: 14:45:06 Link R2 setting changed to   1.00 by Control ToolkitAPI
   02/06/2018: 15:00:06 Link R1 setting changed to   0.85 by Control ToolkitAPI
   02/06/2018: 15:00:06 Link R2 setting changed to   1.00 by Control ToolkitAPI
   02/06/2018: 15:15:06 Link R1 setting changed to   0.92 by Control ToolkitAPI
   02/06/2018: 15:15:06 Link R2 setting changed to   1.00 by Control ToolkitAPI
   02/06/2018: 15:30:06 Link R1 setting changed to   0.91 by Control ToolkitAPI
   02/06/2018: 15:30:06 Link R2 setting changed to   1.00 by Control ToolkitAPI
   02/06/2018: 15:45:06 Link R1 setting changed to   0.88 by Control ToolkitAPI
   02/06/2018: 15:45:06 Link R2 setting changed to   1.00 by Control ToolkitAPI
   02/06/2018: 16:00:06 Link R1 setting changed to   0.88 by Control ToolkitAPI
   02/06/2018: 16:00:06 Link R2 setting changed to   1.00 by Control ToolkitAPI
   02/06/2018: 16:15:06 Link R1 setting changed to   0.93 by Control ToolkitAPI
   02/06/2018: 16:15:06 Link R2 setting changed to   1.00 by Control ToolkitAPI
   02/06/2018: 16:30:06 Link R1 setting changed to   0.96 by Control ToolkitAPI
   02/06/2018: 16:30:06 Link R2 setting changed to   1.00 by Control ToolkitAPI
   02/06/2018: 16:45:06 Link R1 setting changed to   0.94 by Control ToolkitAPI
   02/06/2018: 16:45:06 Link R2 setting changed to   1.00 by Control ToolkitAPI
   02/06/2018: 17:00:06 Link R1 setting changed to   0.93 by Control ToolkitAPI
   02/06/2018: 17:00:06 Link R2 setting changed to   1.00 by Control ToolkitAPI
   02/06/2018: 17:15:06 Link R1 setting changed to   0.89 by Control ToolkitAPI
   02/06/2018: 17:15:06 Link R2 setting changed to   1.00 by Control ToolkitAPI
   02/06/2018: 17:30:06 Link R1 setting changed to   0.90 by Control ToolkitAPI
   02/06/2018: 17:30:06 Link R2 setting changed to   1.00 by Control ToolkitAPI
   02/06/2018: 17:45:06 Link R1 setting changed to   0.95 by Control ToolkitAPI
   02/06/2018: 17:45:06 Link R2 setting changed to   1.00 by Control ToolkitAPI
   02/06/2018: 18:00:06 Link R1 setting changed to   0.90 by Control ToolkitAPI
   02/06/2018: 18:00:06 Link R2 setting changed to   1.00 by Control ToolkitAPI
   02/06/2018: 18:15:06 Link R1 setting changed to   0.91 by Control ToolkitAPI
   02/06/2018: 18:15:06 Link R2 setting changed to   0.97 by Control ToolkitAPI
   02/06/2018: 18:30:06 Link R1 setting changed to   0.89 by Control ToolkitAPI
   02/06/2018: 18:30:06 Link R2 setting changed to   1.00 by Control ToolkitAPI
   02/06/2018: 18:45:06 Link R1 setting changed to   0.83 by Control ToolkitAPI
   02/06/2018: 18:45:06 Link R2 setting changed to   1.00 by Control ToolkitAPI
   02/06/2018: 19:00:06 Link R1 setting changed to   0.86 by Control ToolkitAPI
   02/06/2018: 19:00:06 Link R2 setting changed to   1.00 by Control ToolkitAPI
   02/06/2018: 19:15:06 Link R1 setting changed to   0.88 by Control ToolkitAPI
   02/06/2018: 19:15:06 Link R2 setting changed to   1.00 by Control ToolkitAPI
   02/06/2018: 19:30:06 Link R1 setting changed to   0.85 by Control ToolkitAPI
   02/06/2018: 19:30:06 Link R2 setting changed to   1.00 by Control ToolkitAPI
   02/06/2018: 19:45:06 Link R1 setting changed to   0.82 by Control ToolkitAPI
   02/06/2018: 19:45:06 Link R2 setting changed to   1.00 by Control ToolkitAPI
   02/06/2018: 20:00:06 Link R1 setting changed to   0.80 by Control ToolkitAPI
   02/06/2018: 20:00:06 Link R2 setting changed to   1.00 by Control ToolkitAPI
   02/06/2018: 20:15:06 Link R1 setting changed to   0.84 by Control ToolkitAPI
   02/06/2018: 20:15:06 Link R2 setting changed to   1.00 by Control ToolkitAPI
   02/06/2018: 20:30:06 Link R1 setting changed to   0.88 by Control ToolkitAPI
   02/06/2018: 20:30:06 Link R2 setting changed to   1.00 by Control ToolkitAPI
   02/06/2018: 20:45:06 Link R1 setting changed to   0.90 by Control ToolkitAPI
   02/06/2018: 20:45:06 Link R2 setting changed to   1.00 by Control ToolkitAPI
   02/06/2018: 21:00:06 Link R1 setting changed to   0.88 by Control ToolkitAPI
   02/06/2018: 21:00:06 Link R2 setting changed to   1.00 by Control ToolkitAPI
   02/06/2018: 21:15:06 Link R1 setting changed to   0.88 by Control ToolkitAPI
   02/06/2018: 21:15:06 Link R2 setting changed to   1.00 by Control ToolkitAPI
   02/06/2018: 21:30:06 Link R1 setting changed to   0.88 by Control ToolkitAPI
   02/06/2018: 21:30:06 Link R2 setting changed to   1.00 by Control ToolkitAPI
   02/06/2018: 21:45:06 Link R1 setting changed to   0.86 by Control ToolkitAPI
   02/06/2018: 21:45:06 Link R2 setting changed to   1.00 by Control ToolkitAPI
   02/06/2018: 22:00:06 Link R1 setting changed to   0.86 by Control ToolkitAPI
   02/06/2018: 22:00:06 Link R2 setting changed to   1.00 by Control ToolkitAPI
   02/06/2018: 22:15:06 Link R1 setting changed to   0.85 by Control ToolkitAPI
   02/06/2018: 22:15:06 Link R2 setting changed to   1.00 by Control ToolkitAPI
   02/06/2018: 22:30:06 Link R1 setting changed to   0.80 by Control ToolkitAPI
   02/06/2018: 22:30:06 Link R2 setting changed to   1.00 by Control ToolkitAPI
   02/06/2018: 22:45:06 Link R1 setting changed to   0.75 by Control ToolkitAPI
   02/06/2018: 22:45:06 Link R2 setting changed to   0.98 by Control ToolkitAPI
   02/06/2018: 23:00:06 Link R1 setting changed to   0.78 by Control ToolkitAPI
   02/06/2018: 23:00:06 Link R2 setting changed to   1.00 by Control ToolkitAPI
   02/06/2018: 23:15:06 Link R1 setting changed to   0.78 by Control ToolkitAPI
   02/06/2018: 23:15:06 Link R2 setting changed to   1.00 by Control ToolkitAPI
   02/06/2018: 23:30:06 Link R1 setting changed to   0.77 by Control ToolkitAPI
   02/06/2018: 23:30:06 Link R2 setting changed to   1.00 by Control ToolkitAPI

  
  ********************
  Subcatchment Results
  ********************
  
  <<< Subcatchment S1 >>>
  ---------------------------------------------------
  Date        Time        Precip.    Losses    Runoff
                            in/hr     in/hr       CFS
  ---------------------------------------------------
   02/06/2018 00:01:00      0.000     0.000    0.0000
   02/06/2018 00:02:00      0.000     0.000    0.0000
   02/06/2018 00:03:00      0.000     0.000    0.0000
   02/06/2018 00:04:00      0.000     0.000    0.0000
   02/06/2018 00:05:00      0.000     0.000    0.0000
   02/06/2018 00:06:00      0.000     0.000    0.0000
   02/06/2018 00:07:00      0.000     0.000    0.0000
   02/06/2018 00:08:00      0.000     0.000    0.0000
   02/06/2018 00:09:00      0.000     0.000    0.0000
   02/06/2018 00:10:00      0.000     0.000    0.0000
   02/06/2018 00:11:00      0.000     0.000    0.0000
   02/06/2018 00:12:00      0.000     0.000    0.0000
   02/06/2018 00:13:00      0.000     0.000    0.0000
   02/06/2018 00:14:00      0.000     0.000    0.0000
   02/06/2018 00:15:00      0.000     0.000    0.0000
   02/06/2018 00:16:00      0.000     0.000    0.0000
   02/06/2018 00:17:00      0.000     0.000    0.0000
   02/06/2018 00:18:00      0.000     0.000    0.0000
   02/06/2018 00:19:00      0.000     0.000    0.0000
   02/06/2018 00:20:00      0.000     0.000    0.0000
   02/06/2018 00:21:00      0.000     0.000    0.0000
   02/06/2018 00:22:00      0.000     0.000    0.0000
   02/06/2018 00:23:00      0.000     0.000    0.0000
   02/06/2018 00:24:00      0.066     0.046    0.0000
   02/06/2018 00:25:00      0.066     0.046    0.0000
   02/06/2018 00:26:00      0.066     0.046    0.0000
   02/06/2018 00:27:00      0.066     0.046    0.0000
   02/06/2018 00:28:00      0.066     0.046    0.0000
   02/06/2018 00:29:00      0.066     0.046    0.0000
   02/06/2018 00:30:00      0.067     0.047    0.0000
   02/06/2018 00:31:00      0.067     0.047    0.0000
   02/06/2018 00:32:00      0.067     0.047    0.0000
   02/06/2018 00:33:00      0.067     0.047    0.0000
   02/06/2018 00:34:00      0.067     0.047    0.0000
   02/06/2018 00:35:00      0.067     0.047    0.0000
   02/06/2018 00:36:00      0.068     0.047    0.0000
   02/06/2018 00:37:00      0.068     0.047    0.0000
   02/06/2018 00:38:00      0.068     0.047    0.0000
   02/06/2018 00:39:00      0.068     0.047    0.0000
   02/06/2018 00:40:00      0.068     0.047    0.0000
   02/06/2018 00:41:00      0.068     0.047    0.0736
   02/06/2018 00:42:00      0.068     0.048    0.0799
   02/06/2018 00:43:00      0.068     0.048    0.0865
   02/06/2018 00:44:00      0.068     0.048    0.0930
   02/06/2018 00:45:00      0.068     0.048    0.0996
   02/06/2018 00:46:00      0.068     0.048    0.1062
   02/06/2018 00:47:00      0.068     0.048    0.1127
   02/06/2018 00:48:00      0.069     0.048    0.1193
   02/06/2018 00:49:00      0.069     0.048    0.1258
   02/06/2018 00:50:00      0.069     0.048    0.1323
   02/06/2018 00:51:00      0.069     0.048    0.1388
   02/06/2018 00:52:00      0.069     0.048    0.1453
   02/06/2018 00:53:00      0.069     0.048    0.1518
   02/06/2018 00:54:00      0.070     0.049    0.1582
   02/06/2018 00:55:00      0.070     0.049    0.1643
   02/06/2018 00:56:00      0.070     0.049    0.1704
   02/06/2018 00:57:00      0.070     0.049    0.1766
   02/06/2018 00:58:00      0.070     0.049    0.1827
   02/06/2018 00:59:00      0.070     0.049    0.1888
   02/06/2018 01:00:00      0.071     0.049    0.1946
   02/06/2018 01:01:00      0.071     0.049    0.2002
   02/06/2018 01:02:00      0.071     0.049    0.2057
   02/06/2018 01:03:00      0.071     0.049    0.2113
   02/06/2018 01:04:00      0.071     0.049    0.2169
   02/06/2018 01:05:00      0.071     0.049    0.2224
   02/06/2018 01:06:00      0.071     0.050    0.2276
   02/06/2018 01:07:00      0.071     0.050    0.2361
   02/06/2018 01:08:00      0.071     0.050    0.2446
   02/06/2018 01:09:00      0.071     0.050    0.2531
   02/06/2018 01:10:00      0.071     0.050    0.2616
   02/06/2018 01:11:00      0.071     0.050    0.2700
   02/06/2018 01:12:00      0.072     0.051    0.2845
   02/06/2018 01:13:00      0.072     0.051    0.3028
   02/06/2018 01:14:00      0.072     0.051    0.3211
   02/06/2018 01:15:00      0.072     0.051    0.3395
   02/06/2018 01:16:00      0.072     0.051    0.3578
   02/06/2018 01:17:00      0.072     0.051    0.3762
   02/06/2018 01:18:00      0.073     0.051    0.3972
   02/06/2018 01:19:00      0.073     0.051    0.4203
   02/06/2018 01:20:00      0.073     0.051    0.4433
   02/06/2018 01:21:00      0.073     0.051    0.4664
   02/06/2018 01:22:00      0.073     0.051    0.4894
   02/06/2018 01:23:00      0.073     0.051    0.5125
   02/06/2018 01:24:00      0.074     0.052    0.5365
   02/06/2018 01:25:00      0.074     0.052    0.5613
   02/06/2018 01:26:00      0.074     0.052    0.5860
   02/06/2018 01:27:00      0.074     0.052    0.6107
   02/06/2018 01:28:00      0.074     0.052    0.6355
   02/06/2018 01:29:00      0.074     0.052    0.6602
   02/06/2018 01:30:00      0.074     0.052    0.6848
   02/06/2018 01:31:00      0.074     0.052    0.7092
   02/06/2018 01:32:00      0.074     0.052    0.7336
   02/06/2018 01:33:00      0.074     0.052    0.7580
   02/06/2018 01:34:00      0.074     0.052    0.7824
   02/06/2018 01:35:00      0.074     0.052    0.8068
   02/06/2018 01:36:00      0.075     0.053    0.8303
   02/06/2018 01:37:00      0.075     0.053    0.8531
   02/06/2018 01:38:00      0.075     0.053    0.8759
   02/06/2018 01:39:00      0.075     0.053    0.8987
   02/06/2018 01:40:00      0.075     0.053    0.9215
   02/06/2018 01:41:00      0.075     0.053    0.9443
   02/06/2018 01:42:00      0.076     0.053    0.9658
   02/06/2018 01:43:00      0.076     0.053    0.9863
   02/06/2018 01:44:00      0.076     0.053    1.0068
   02/06/2018 01:45:00      0.076     0.053    1.0273
   02/06/2018 01:46:00      0.076     0.053    1.0478
   02/06/2018 01:47:00      0.076     0.053    1.0683
   02/06/2018 01:48:00      0.077     0.054    1.0873
   02/06/2018 01:49:00      0.077     0.054    1.1053
   02/06/2018 01:50:00      0.077     0.054    1.1233
   02/06/2018 01:51:00      0.077     0.054    1.1413
   02/06/2018 01:52:00      0.077     0.054    1.1593
   02/06/2018 01:53:00      0.077     0.054    1.1772
   02/06/2018 01:54:00      0.077     0.054    1.1937
   02/06/2018 01:55:00      0.077     0.054    1.2092
   02/06/2018 01:56:00      0.077     0.054    1.2247
   02/06/2018 01:57:00      0.077     0.054    1.2402
   02/06/2018 01:58:00      0.077     0.054    1.2557
   02/06/2018 01:59:00      0.077     0.054    1.2712
   02/06/2018 02:00:00      0.078     0.055    1.2852
   02/06/2018 02:01:00      0.078     0.055    1.2985
   02/06/2018 02:02:00      0.078     0.055    1.3117
   02/06/2018 02:03:00      0.078     0.055    1.3249
   02/06/2018 02:04:00      0.078     0.055    1.3381
   02/06/2018 02:05:00      0.078     0.055    1.3514
   02/06/2018 02:06:00      0.079     0.055    1.3633
   02/06/2018 02:07:00      0.079     0.055    1.3745
   02/06/2018 02:08:00      0.079     0.055    1.3857
   02/06/2018 02:09:00      0.079     0.055    1.3969
   02/06/2018 02:10:00      0.079     0.055    1.4082
   02/06/2018 02:11:00      0.079     0.055    1.4194
   02/06/2018 02:12:00      0.079     0.056    1.4294
   02/06/2018 02:13:00      0.079     0.056    1.4390
   02/06/2018 02:14:00      0.079     0.056    1.4485
   02/06/2018 02:15:00      0.079     0.056    1.4580
   02/06/2018 02:16:00      0.079     0.056    1.4676
   02/06/2018 02:17:00      0.079     0.056    1.4771
   02/06/2018 02:18:00      0.080     0.056    1.4856
   02/06/2018 02:19:00      0.080     0.056    1.4937
   02/06/2018 02:20:00      0.080     0.056    1.5018
   02/06/2018 02:21:00      0.080     0.056    1.5099
   02/06/2018 02:22:00      0.080     0.056    1.5181
   02/06/2018 02:23:00      0.080     0.056    1.5262
   02/06/2018 02:24:00      0.082     0.058    1.5334
   02/06/2018 02:25:00      0.082     0.058    1.5415
   02/06/2018 02:26:00      0.082     0.058    1.5497
   02/06/2018 02:27:00      0.082     0.058    1.5579
   02/06/2018 02:28:00      0.082     0.058    1.5661
   02/06/2018 02:29:00      0.082     0.058    1.5743
   02/06/2018 02:30:00      0.086     0.060    1.5815
   02/06/2018 02:31:00      0.086     0.060    1.5909
   02/06/2018 02:32:00      0.086     0.060    1.6004
   02/06/2018 02:33:00      0.086     0.060    1.6098
   02/06/2018 02:34:00      0.086     0.060    1.6193
   02/06/2018 02:35:00      0.086     0.060    1.6287
   02/06/2018 02:36:00      0.090     0.063    1.6370
   02/06/2018 02:37:00      0.090     0.063    1.6475
   02/06/2018 02:38:00      0.090     0.063    1.6579
   02/06/2018 02:39:00      0.090     0.063    1.6684
   02/06/2018 02:40:00      0.090     0.063    1.6788
   02/06/2018 02:41:00      0.090     0.063    1.6892
   02/06/2018 02:42:00      0.093     0.065    1.6984
   02/06/2018 02:43:00      0.093     0.065    1.7097
   02/06/2018 02:44:00      0.093     0.065    1.7209
   02/06/2018 02:45:00      0.093     0.065    1.7321
   02/06/2018 02:46:00      0.093     0.065    1.7434
   02/06/2018 02:47:00      0.093     0.065    1.7546
   02/06/2018 02:48:00      0.097     0.068    1.7645
   02/06/2018 02:49:00      0.097     0.068    1.7764
   02/06/2018 02:50:00      0.097     0.068    1.7882
   02/06/2018 02:51:00      0.097     0.068    1.8001
   02/06/2018 02:52:00      0.097     0.068    1.8119
   02/06/2018 02:53:00      0.097     0.068    1.8238
   02/06/2018 02:54:00      0.101     0.070    1.8342
   02/06/2018 02:55:00      0.101     0.070    1.8466
   02/06/2018 02:56:00      0.101     0.070    1.8589
   02/06/2018 02:57:00      0.101     0.070    1.8713
   02/06/2018 02:58:00      0.101     0.070    1.8836
   02/06/2018 02:59:00      0.101     0.070    1.8960
   02/06/2018 03:00:00      0.104     0.073    1.9068
   02/06/2018 03:01:00      0.104     0.073    1.9195
   02/06/2018 03:02:00      0.104     0.073    1.9322
   02/06/2018 03:03:00      0.104     0.073    1.9450
   02/06/2018 03:04:00      0.104     0.073    1.9577
   02/06/2018 03:05:00      0.104     0.073    1.9704
   02/06/2018 03:06:00      0.108     0.076    1.9816
   02/06/2018 03:07:00      0.108     0.076    1.9946
   02/06/2018 03:08:00      0.108     0.076    2.0076
   02/06/2018 03:09:00      0.108     0.076    2.0206
   02/06/2018 03:10:00      0.108     0.076    2.0337
   02/06/2018 03:11:00      0.108     0.076    2.0467
   02/06/2018 03:12:00      0.112     0.078    2.0580
   02/06/2018 03:13:00      0.112     0.078    2.0713
   02/06/2018 03:14:00      0.112     0.078    2.0845
   02/06/2018 03:15:00      0.112     0.078    2.0978
   02/06/2018 03:16:00      0.112     0.078    2.1110
   02/06/2018 03:17:00      0.112     0.078    2.1243
   02/06/2018 03:18:00      0.115     0.081    2.1358
   02/06/2018 03:19:00      0.115     0.081    2.1492
   02/06/2018 03:20:00      0.115     0.081    2.1626
   02/06/2018 03:21:00      0.115     0.081    2.1760
   02/06/2018 03:22:00      0.115     0.081    2.1894
   02/06/2018 03:23:00      0.115     0.081    2.2028
   02/06/2018 03:24:00      0.117     0.082    2.2144
   02/06/2018 03:25:00      0.117     0.082    2.2263
   02/06/2018 03:26:00      0.117     0.082    2.2381
   02/06/2018 03:27:00      0.117     0.082    2.2499
   02/06/2018 03:28:00      0.117     0.082    2.2617
   02/06/2018 03:29:00      0.117     0.082    2.2735
   02/06/2018 03:30:00      0.117     0.082    2.2837
   02/06/2018 03:31:00      0.117     0.082    2.2925
   02/06/2018 03:32:00      0.117     0.082    2.3014
   02/06/2018 03:33:00      0.117     0.082    2.3102
   02/06/2018 03:34:00      0.117     0.082    2.3190
   02/06/2018 03:35:00      0.117     0.082    2.3279
   02/06/2018 03:36:00      0.117     0.082    2.3355
   02/06/2018 03:37:00      0.117     0.082    2.3420
   02/06/2018 03:38:00      0.117     0.082    2.3486
   02/06/2018 03:39:00      0.117     0.082    2.3552
   02/06/2018 03:40:00      0.117     0.082    2.3617
   02/06/2018 03:41:00      0.117     0.082    2.3683
   02/06/2018 03:42:00      0.117     0.082    2.3739
   02/06/2018 03:43:00      0.117     0.082    2.3788
   02/06/2018 03:44:00      0.117     0.082    2.3837
   02/06/2018 03:45:00      0.117     0.082    2.3885
   02/06/2018 03:46:00      0.117     0.082    2.3934
   02/06/2018 03:47:00      0.117     0.082    2.3983
   02/06/2018 03:48:00      0.117     0.082    2.4024
   02/06/2018 03:49:00      0.117     0.082    2.4060
   02/06/2018 03:50:00      0.117     0.082    2.4096
   02/06/2018 03:51:00      0.117     0.082    2.4132
   02/06/2018 03:52:00      0.117     0.082    2.4168
   02/06/2018 03:53:00      0.117     0.082    2.4204
   02/06/2018 03:54:00      0.120     0.084    2.4235
   02/06/2018 03:55:00      0.120     0.084    2.4289
   02/06/2018 03:56:00      0.120     0.084    2.4344
   02/06/2018 03:57:00      0.120     0.084    2.4399
   02/06/2018 03:58:00      0.120     0.084    2.4453
   02/06/2018 03:59:00      0.120     0.084    2.4508
   02/06/2018 04:00:00      0.126     0.088    2.4555
   02/06/2018 04:01:00      0.126     0.088    2.4652
   02/06/2018 04:02:00      0.126     0.088    2.4749
   02/06/2018 04:03:00      0.126     0.088    2.4846
   02/06/2018 04:04:00      0.126     0.088    2.4944
   02/06/2018 04:05:00      0.126     0.088    2.5041
   02/06/2018 04:06:00      0.132     0.092    2.5124
   02/06/2018 04:07:00      0.132     0.092    2.5253
   02/06/2018 04:08:00      0.132     0.092    2.5382
   02/06/2018 04:09:00      0.132     0.092    2.5511
   02/06/2018 04:10:00      0.132     0.092    2.5640
   02/06/2018 04:11:00      0.132     0.092    2.5769
   02/06/2018 04:12:00      0.138     0.096    2.5880
   02/06/2018 04:13:00      0.138     0.096    2.6033
   02/06/2018 04:14:00      0.138     0.096    2.6186
   02/06/2018 04:15:00      0.138     0.096    2.6339
   02/06/2018 04:16:00      0.138     0.096    2.6493
   02/06/2018 04:17:00      0.138     0.096    2.6646
   02/06/2018 04:18:00      0.144     0.100    2.6777
   02/06/2018 04:19:00      0.144     0.100    2.6948
   02/06/2018 04:20:00      0.144     0.100    2.7119
   02/06/2018 04:21:00      0.144     0.100    2.7291
   02/06/2018 04:22:00      0.144     0.100    2.7462
   02/06/2018 04:23:00      0.144     0.100    2.7633
   02/06/2018 04:24:00      0.151     0.106    2.7780
   02/06/2018 04:25:00      0.151     0.106    2.7980
   02/06/2018 04:26:00      0.151     0.106    2.8180
   02/06/2018 04:27:00      0.151     0.106    2.8379
   02/06/2018 04:28:00      0.151     0.106    2.8579
   02/06/2018 04:29:00      0.151     0.106    2.8779
   02/06/2018 04:30:00      0.160     0.112    2.8950
   02/06/2018 04:31:00      0.160     0.112    2.9186
   02/06/2018 04:32:00      0.160     0.112    2.9423
   02/06/2018 04:33:00      0.160     0.112    2.9660
   02/06/2018 04:34:00      0.160     0.112    2.9896
   02/06/2018 04:35:00      0.160     0.112    3.0133
   02/06/2018 04:36:00      0.168     0.118    3.0334
   02/06/2018 04:37:00      0.168     0.118    3.0598
   02/06/2018 04:38:00      0.168     0.118    3.0862
   02/06/2018 04:39:00      0.168     0.118    3.1127
   02/06/2018 04:40:00      0.168     0.118    3.1391
   02/06/2018 04:41:00      0.168     0.118    3.1655
   02/06/2018 04:42:00      0.177     0.124    3.1879
   02/06/2018 04:43:00      0.177     0.124    3.2164
   02/06/2018 04:44:00      0.177     0.124    3.2448
   02/06/2018 04:45:00      0.177     0.124    3.2733
   02/06/2018 04:46:00      0.177     0.124    3.3018
   02/06/2018 04:47:00      0.177     0.124    3.3303
   02/06/2018 04:48:00      0.186     0.130    3.3543
   02/06/2018 04:49:00      0.186     0.130    3.3843
   02/06/2018 04:50:00      0.186     0.130    3.4143
   02/06/2018 04:51:00      0.186     0.130    3.4443
   02/06/2018 04:52:00      0.186     0.130    3.4743
   02/06/2018 04:53:00      0.186     0.130    3.5043
   02/06/2018 04:54:00      0.198     0.138    3.5295
   02/06/2018 04:55:00      0.198     0.138    3.5639
   02/06/2018 04:56:00      0.198     0.138    3.5982
   02/06/2018 04:57:00      0.198     0.138    3.6325
   02/06/2018 04:58:00      0.198     0.138    3.6669
   02/06/2018 04:59:00      0.198     0.138    3.7012
   02/06/2018 05:00:00      0.212     0.149    3.7301
   02/06/2018 05:01:00      0.212     0.149    3.7709
   02/06/2018 05:02:00      0.212     0.149    3.8118
   02/06/2018 05:03:00      0.212     0.149    3.8527
   02/06/2018 05:04:00      0.212     0.149    3.8935
   02/06/2018 05:05:00      0.212     0.149    3.9344
   02/06/2018 05:06:00      0.227     0.159    3.9686
   02/06/2018 05:07:00      0.227     0.159    4.0143
   02/06/2018 05:08:00      0.227     0.159    4.0599
   02/06/2018 05:09:00      0.227     0.159    4.1056
   02/06/2018 05:10:00      0.227     0.159    4.1513
   02/06/2018 05:11:00      0.227     0.159    4.1969
   02/06/2018 05:12:00      0.242     0.169    4.2350
   02/06/2018 05:13:00      0.242     0.169    4.2841
   02/06/2018 05:14:00      0.242     0.169    4.3332
   02/06/2018 05:15:00      0.242     0.169    4.3823
   02/06/2018 05:16:00      0.242     0.169    4.4314
   02/06/2018 05:17:00      0.242     0.169    4.4806
   02/06/2018 05:18:00      0.256     0.179    4.5213
   02/06/2018 05:19:00      0.256     0.179    4.5728
   02/06/2018 05:20:00      0.256     0.179    4.6244
   02/06/2018 05:21:00      0.256     0.179    4.6760
   02/06/2018 05:22:00      0.256     0.179    4.7276
   02/06/2018 05:23:00      0.256     0.179    4.7791
   02/06/2018 05:24:00      0.281     0.197    4.8216
   02/06/2018 05:25:00      0.281     0.197    4.8876
   02/06/2018 05:26:00      0.281     0.197    4.9536
   02/06/2018 05:27:00      0.281     0.197    5.0196
   02/06/2018 05:28:00      0.281     0.197    5.0856
   02/06/2018 05:29:00      0.281     0.197    5.1517
   02/06/2018 05:30:00      0.316     0.221    5.2059
   02/06/2018 05:31:00      0.316     0.221    5.2953
   02/06/2018 05:32:00      0.316     0.221    5.3848
   02/06/2018 05:33:00      0.316     0.221    5.4743
   02/06/2018 05:34:00      0.316     0.221    5.5638
   02/06/2018 05:35:00      0.316     0.221    5.6533
   02/06/2018 05:36:00      0.352     0.246    5.7265
   02/06/2018 05:37:00      0.352     0.246    5.8328
   02/06/2018 05:38:00      0.352     0.246    5.9391
   02/06/2018 05:39:00      0.352     0.246    6.0455
   02/06/2018 05:40:00      0.352     0.246    6.1518
   02/06/2018 05:41:00      0.352     0.246    6.2581
   02/06/2018 05:42:00      0.387     0.271    6.3444
   02/06/2018 05:43:00      0.387     0.271    6.4624
   02/06/2018 05:44:00      0.387     0.271    6.5805
   02/06/2018 05:45:00      0.387     0.271    6.6986
   02/06/2018 05:46:00      0.387     0.271    6.8167
   02/06/2018 05:47:00      0.387     0.271    6.9348
   02/06/2018 05:48:00      0.422     0.295    7.0296
   02/06/2018 05:49:00      0.422     0.295    7.1556
   02/06/2018 05:50:00      0.422     0.295    7.2816
   02/06/2018 05:51:00      0.422     0.295    7.4075
   02/06/2018 05:52:00      0.422     0.295    7.5335
   02/06/2018 05:53:00      0.422     0.295    7.6594
   02/06/2018 05:54:00      0.873     0.611    7.7595
   02/06/2018 05:55:00      0.873     0.611    8.5362
   02/06/2018 05:56:00      0.873     0.611    9.3129
   02/06/2018 05:57:00      0.873     0.611   10.0896
   02/06/2018 05:58:00      0.873     0.611   10.8663
   02/06/2018 05:59:00      0.873     0.611   11.6430
   02/06/2018 06:00:00      1.740     0.715   12.2791
   02/06/2018 06:01:00      1.740     0.715   14.4191
   02/06/2018 06:02:00      1.740     0.715   16.5591
   02/06/2018 06:03:00      1.740     0.715   18.6991
   02/06/2018 06:04:00      1.740     0.715   20.8391
   02/06/2018 06:05:00      1.740     0.704   22.9791
   02/06/2018 06:06:00      2.799     0.684   24.6851
   02/06/2018 06:07:00      2.799     0.684   28.5767
   02/06/2018 06:08:00      2.799     0.684   32.4683
   02/06/2018 06:09:00      2.799     0.684   36.3599
   02/06/2018 06:10:00      2.799     0.684   40.2516
   02/06/2018 06:11:00      2.799     0.684   44.1432
   02/06/2018 06:12:00      5.020     0.669   47.0497
   02/06/2018 06:13:00      5.020     0.669   56.0107
   02/06/2018 06:14:00      5.020     0.669   64.9716
   02/06/2018 06:15:00      5.020     0.669   73.9326
   02/06/2018 06:16:00      5.020     0.669   82.8936
   02/06/2018 06:17:00      5.020     0.685   91.8546
   02/06/2018 06:18:00      3.484     0.674   98.1691
   02/06/2018 06:19:00      3.484     0.674   97.6026
   02/06/2018 06:20:00      3.484     0.674   97.0362
   02/06/2018 06:21:00      3.484     0.674   96.4698
   02/06/2018 06:22:00      3.484     0.674   95.9033
   02/06/2018 06:23:00      3.484     0.677   95.3369
   02/06/2018 06:24:00      0.694     0.665   95.7477
   02/06/2018 06:25:00      0.694     0.665   87.9286
   02/06/2018 06:26:00      0.694     0.665   80.1094
   02/06/2018 06:27:00      0.694     0.665   72.2902
   02/06/2018 06:28:00      0.694     0.665   64.4710
   02/06/2018 06:29:00      0.694     0.652   56.6518
   02/06/2018 06:30:00      0.611     0.639   52.6220
   02/06/2018 06:31:00      0.611     0.639   49.8809
   02/06/2018 06:32:00      0.611     0.639   47.1398
   02/06/2018 06:33:00      0.611     0.639   44.3988
   02/06/2018 06:34:00      0.611     0.639   41.6577
   02/06/2018 06:35:00      0.611     0.628   38.9166
   02/06/2018 06:36:00      0.527     0.618   37.1780
   02/06/2018 06:37:00      0.527     0.618   35.7504
   02/06/2018 06:38:00      0.527     0.618   34.3228
   02/06/2018 06:39:00      0.527     0.618   32.8952
   02/06/2018 06:40:00      0.527     0.618   31.4675
   02/06/2018 06:41:00      0.527     0.608   30.0399
   02/06/2018 06:42:00      0.444     0.599   29.0228
   02/06/2018 06:43:00      0.444     0.599   28.0614
   02/06/2018 06:44:00      0.444     0.599   27.1000
   02/06/2018 06:45:00      0.444     0.599   26.1385
   02/06/2018 06:46:00      0.444     0.599   25.1771
   02/06/2018 06:47:00      0.444     0.590   24.2156
   02/06/2018 06:48:00      0.360     0.582   23.4821
   02/06/2018 06:49:00      0.360     0.582   22.7217
   02/06/2018 06:50:00      0.360     0.582   21.9613
   02/06/2018 06:51:00      0.360     0.582   21.2010
   02/06/2018 06:52:00      0.360     0.582   20.4406
   02/06/2018 06:53:00      0.360     0.574   19.6802
   02/06/2018 06:54:00      0.309     0.568   19.0767
   02/06/2018 06:55:00      0.309     0.568   18.4800
   02/06/2018 06:56:00      0.309     0.568   17.8833
   02/06/2018 06:57:00      0.309     0.568   17.2865
   02/06/2018 06:58:00      0.309     0.568   16.6898
   02/06/2018 06:59:00      0.309     0.560   16.0930
   02/06/2018 07:00:00      0.290     0.554   15.6050
   02/06/2018 07:01:00      0.290     0.554   15.1591
   02/06/2018 07:02:00      0.290     0.554   14.7133
   02/06/2018 07:03:00      0.290     0.554   14.2674
   02/06/2018 07:04:00      0.290     0.554   13.8215
   02/06/2018 07:05:00      0.290     0.548   13.3756
   02/06/2018 07:06:00      0.271     0.543   13.0011
   02/06/2018 07:07:00      0.271     0.543   12.6468
   02/06/2018 07:08:00      0.271     0.543   12.2925
   02/06/2018 07:09:00      0.271     0.543   11.9382
   02/06/2018 07:10:00      0.271     0.543   11.5839
   02/06/2018 07:11:00      0.271     0.537   11.2297
   02/06/2018 07:12:00      0.252     0.532   10.9279
   02/06/2018 07:13:00      0.252     0.532   10.6354
   02/06/2018 07:14:00      0.252     0.532   10.3430
   02/06/2018 07:15:00      0.252     0.532   10.0505
   02/06/2018 07:16:00      0.252     0.532    9.7581
   02/06/2018 07:17:00      0.252     0.527    9.4656
   02/06/2018 07:18:00      0.233     0.523    9.2153
   02/06/2018 07:19:00      0.233     0.523    8.9688
   02/06/2018 07:20:00      0.233     0.523    8.7223
   02/06/2018 07:21:00      0.233     0.523    8.4758
   02/06/2018 07:22:00      0.233     0.523    8.2292
   02/06/2018 07:23:00      0.233     0.518    7.9827
   02/06/2018 07:24:00      0.218     0.514    7.7724
   02/06/2018 07:25:00      0.218     0.514    7.5699
   02/06/2018 07:26:00      0.218     0.514    7.3673
   02/06/2018 07:27:00      0.218     0.514    7.1648
   02/06/2018 07:28:00      0.218     0.514    6.9622
   02/06/2018 07:29:00      0.218     0.510    6.7597
   02/06/2018 07:30:00      0.208     0.506    6.5885
   02/06/2018 07:31:00      0.208     0.506    6.4293
   02/06/2018 07:32:00      0.208     0.506    6.2701
   02/06/2018 07:33:00      0.208     0.506    6.1110
   02/06/2018 07:34:00      0.208     0.506    5.9518
   02/06/2018 07:35:00      0.208     0.502    5.7926
   02/06/2018 07:36:00      0.198     0.499    5.6610
   02/06/2018 07:37:00      0.198     0.499    5.5402
   02/06/2018 07:38:00      0.198     0.499    5.4194
   02/06/2018 07:39:00      0.198     0.499    5.2986
   02/06/2018 07:40:00      0.198     0.499    5.1778
   02/06/2018 07:41:00      0.198     0.496    5.0570
   02/06/2018 07:42:00      0.188     0.493    4.9629
   02/06/2018 07:43:00      0.188     0.493    4.8825
   02/06/2018 07:44:00      0.188     0.493    4.8022
   02/06/2018 07:45:00      0.188     0.493    4.7219
   02/06/2018 07:46:00      0.188     0.493    4.6415
   02/06/2018 07:47:00      0.188     0.489    4.5612
   02/06/2018 07:48:00      0.177     0.486    4.5153
   02/06/2018 07:49:00      0.177     0.486    4.4728
   02/06/2018 07:50:00      0.177     0.486    4.4303
   02/06/2018 07:51:00      0.177     0.486    4.3878
   02/06/2018 07:52:00      0.177     0.486    4.3453
   02/06/2018 07:53:00      0.177     0.407    4.3029
   02/06/2018 07:54:00      0.168     0.118    4.2685
   02/06/2018 07:55:00      0.168     0.118    4.2301
   02/06/2018 07:56:00      0.168     0.118    4.1917
   02/06/2018 07:57:00      0.168     0.118    4.1533
   02/06/2018 07:58:00      0.168     0.118    4.1150
   02/06/2018 07:59:00      0.168     0.118    4.0766
   02/06/2018 08:00:00      0.161     0.113    4.0454
   02/06/2018 08:01:00      0.161     0.113    4.0113
   02/06/2018 08:02:00      0.161     0.113    3.9773
   02/06/2018 08:03:00      0.161     0.113    3.9432
   02/06/2018 08:04:00      0.161     0.113    3.9092
   02/06/2018 08:05:00      0.161     0.113    3.8751
   02/06/2018 08:06:00      0.154     0.108    3.8473
   02/06/2018 08:07:00      0.154     0.108    3.8161
   02/06/2018 08:08:00      0.154     0.108    3.7849
   02/06/2018 08:09:00      0.154     0.108    3.7537
   02/06/2018 08:10:00      0.154     0.108    3.7225
   02/06/2018 08:11:00      0.154     0.108    3.6913
   02/06/2018 08:12:00      0.146     0.103    3.6657
   02/06/2018 08:13:00      0.146     0.103    3.6364
   02/06/2018 08:14:00      0.146     0.103    3.6070
   02/06/2018 08:15:00      0.146     0.103    3.5777
   02/06/2018 08:16:00      0.146     0.103    3.5484
   02/06/2018 08:17:00      0.146     0.103    3.5191
   02/06/2018 08:18:00      0.139     0.097    3.4949
   02/06/2018 08:19:00      0.139     0.097    3.4669
   02/06/2018 08:20:00      0.139     0.097    3.4389
   02/06/2018 08:21:00      0.139     0.097    3.4108
   02/06/2018 08:22:00      0.139     0.097    3.3828
   02/06/2018 08:23:00      0.139     0.097    3.3547
   02/06/2018 08:24:00      0.134     0.094    3.3315
   02/06/2018 08:25:00      0.134     0.094    3.3071
   02/06/2018 08:26:00      0.134     0.094    3.2827
   02/06/2018 08:27:00      0.134     0.094    3.2582
   02/06/2018 08:28:00      0.134     0.094    3.2338
   02/06/2018 08:29:00      0.134     0.094    3.2093
   02/06/2018 08:30:00      0.131     0.092    3.1890
   02/06/2018 08:31:00      0.131     0.092    3.1689
   02/06/2018 08:32:00      0.131     0.092    3.1488
   02/06/2018 08:33:00      0.131     0.092    3.1287
   02/06/2018 08:34:00      0.131     0.092    3.1086
   02/06/2018 08:35:00      0.131     0.092    3.0885
   02/06/2018 08:36:00      0.129     0.090    3.0717
   02/06/2018 08:37:00      0.129     0.090    3.0553
   02/06/2018 08:38:00      0.129     0.090    3.0389
   02/06/2018 08:39:00      0.129     0.090    3.0225
   02/06/2018 08:40:00      0.129     0.090    3.0061
   02/06/2018 08:41:00      0.129     0.090    2.9897
   02/06/2018 08:42:00      0.126     0.088    2.9760
   02/06/2018 08:43:00      0.126     0.088    2.9614
   02/06/2018 08:44:00      0.126     0.088    2.9469
   02/06/2018 08:45:00      0.126     0.088    2.9323
   02/06/2018 08:46:00      0.126     0.088    2.9177
   02/06/2018 08:47:00      0.126     0.088    2.9031
   02/06/2018 08:48:00      0.124     0.087    2.8909
   02/06/2018 08:49:00      0.124     0.087    2.8783
   02/06/2018 08:50:00      0.124     0.087    2.8657
   02/06/2018 08:51:00      0.124     0.087    2.8531
   02/06/2018 08:52:00      0.124     0.087    2.8405
   02/06/2018 08:53:00      0.124     0.087    2.8279
   02/06/2018 08:54:00      0.121     0.085    2.8173
   02/06/2018 08:55:00      0.121     0.085    2.8054
   02/06/2018 08:56:00      0.121     0.085    2.7934
   02/06/2018 08:57:00      0.121     0.085    2.7815
   02/06/2018 08:58:00      0.121     0.085    2.7696
   02/06/2018 08:59:00      0.121     0.085    2.7577
   02/06/2018 09:00:00      0.119     0.083    2.7476
   02/06/2018 09:01:00      0.119     0.083    2.7369
   02/06/2018 09:02:00      0.119     0.083    2.7261
   02/06/2018 09:03:00      0.119     0.083    2.7154
   02/06/2018 09:04:00      0.119     0.083    2.7047
   02/06/2018 09:05:00      0.119     0.083    2.6939
   02/06/2018 09:06:00      0.116     0.081    2.6849
   02/06/2018 09:07:00      0.116     0.081    2.6742
   02/06/2018 09:08:00      0.116     0.081    2.6636
   02/06/2018 09:09:00      0.116     0.081    2.6530
   02/06/2018 09:10:00      0.116     0.081    2.6424
   02/06/2018 09:11:00      0.116     0.081    2.6318
   02/06/2018 09:12:00      0.114     0.080    2.6228
   02/06/2018 09:13:00      0.114     0.080    2.6130
   02/06/2018 09:14:00      0.114     0.080    2.6032
   02/06/2018 09:15:00      0.114     0.080    2.5934
   02/06/2018 09:16:00      0.114     0.080    2.5836
   02/06/2018 09:17:00      0.114     0.080    2.5737
   02/06/2018 09:18:00      0.111     0.078    2.5654
   02/06/2018 09:19:00      0.111     0.078    2.5555
   02/06/2018 09:20:00      0.111     0.078    2.5455
   02/06/2018 09:21:00      0.111     0.078    2.5356
   02/06/2018 09:22:00      0.111     0.078    2.5256
   02/06/2018 09:23:00      0.111     0.078    2.5157
   02/06/2018 09:24:00      0.109     0.076    2.5073
   02/06/2018 09:25:00      0.109     0.076    2.4979
   02/06/2018 09:26:00      0.109     0.076    2.4886
   02/06/2018 09:27:00      0.109     0.076    2.4792
   02/06/2018 09:28:00      0.109     0.076    2.4699
   02/06/2018 09:29:00      0.109     0.076    2.4606
   02/06/2018 09:30:00      0.106     0.074    2.4526
   02/06/2018 09:31:00      0.106     0.074    2.4430
   02/06/2018 09:32:00      0.106     0.074    2.4334
   02/06/2018 09:33:00      0.106     0.074    2.4238
   02/06/2018 09:34:00      0.106     0.074    2.4142
   02/06/2018 09:35:00      0.106     0.074    2.4046
   02/06/2018 09:36:00      0.104     0.073    2.3965
   02/06/2018 09:37:00      0.104     0.073    2.3874
   02/06/2018 09:38:00      0.104     0.073    2.3783
   02/06/2018 09:39:00      0.104     0.073    2.3692
   02/06/2018 09:40:00      0.104     0.073    2.3601
   02/06/2018 09:41:00      0.104     0.073    2.3510
   02/06/2018 09:42:00      0.101     0.070    2.3433
   02/06/2018 09:43:00      0.101     0.070    2.3339
   02/06/2018 09:44:00      0.101     0.070    2.3244
   02/06/2018 09:45:00      0.101     0.070    2.3150
   02/06/2018 09:46:00      0.101     0.070    2.3056
   02/06/2018 09:47:00      0.101     0.070    2.2962
   02/06/2018 09:48:00      0.099     0.069    2.2882
   02/06/2018 09:49:00      0.099     0.069    2.2792
   02/06/2018 09:50:00      0.099     0.069    2.2703
   02/06/2018 09:51:00      0.099     0.069    2.2613
   02/06/2018 09:52:00      0.099     0.069    2.2524
   02/06/2018 09:53:00      0.099     0.069    2.2434
   02/06/2018 09:54:00      0.096     0.067    2.2357
   02/06/2018 09:55:00      0.096     0.067    2.2264
   02/06/2018 09:56:00      0.096     0.067    2.2171
   02/06/2018 09:57:00      0.096     0.067    2.2078
   02/06/2018 09:58:00      0.096     0.067    2.1985
   02/06/2018 09:59:00      0.096     0.067    2.1892
   02/06/2018 10:00:00      0.093     0.065    2.1813
   02/06/2018 10:01:00      0.093     0.065    2.1724
   02/06/2018 10:02:00      0.093     0.065    2.1635
   02/06/2018 10:03:00      0.093     0.065    2.1546
   02/06/2018 10:04:00      0.093     0.065    2.1458
   02/06/2018 10:05:00      0.093     0.065    2.1369
   02/06/2018 10:06:00      0.090     0.063    2.1293
   02/06/2018 10:07:00      0.090     0.063    2.1200
   02/06/2018 10:08:00      0.090     0.063    2.1108
   02/06/2018 10:09:00      0.090     0.063    2.1016
   02/06/2018 10:10:00      0.090     0.063    2.0923
   02/06/2018 10:11:00      0.090     0.063    2.0831
   02/06/2018 10:12:00      0.088     0.062    2.0752
   02/06/2018 10:13:00      0.088     0.062    2.0664
   02/06/2018 10:14:00      0.088     0.062    2.0575
   02/06/2018 10:15:00      0.088     0.062    2.0487
   02/06/2018 10:16:00      0.088     0.062    2.0399
   02/06/2018 10:17:00      0.088     0.062    2.0311
   02/06/2018 10:18:00      0.085     0.060    2.0235
   02/06/2018 10:19:00      0.085     0.060    2.0143
   02/06/2018 10:20:00      0.085     0.060    2.0051
   02/06/2018 10:21:00      0.085     0.060    1.9959
   02/06/2018 10:22:00      0.085     0.060    1.9867
   02/06/2018 10:23:00      0.085     0.060    1.9776
   02/06/2018 10:24:00      0.084     0.059    1.9696
   02/06/2018 10:25:00      0.084     0.059    1.9615
   02/06/2018 10:26:00      0.084     0.059    1.9534
   02/06/2018 10:27:00      0.084     0.059    1.9452
   02/06/2018 10:28:00      0.084     0.059    1.9371
   02/06/2018 10:29:00      0.084     0.059    1.9289
   02/06/2018 10:30:00      0.083     0.058    1.9219
   02/06/2018 10:31:00      0.083     0.058    1.9149
   02/06/2018 10:32:00      0.083     0.058    1.9078
   02/06/2018 10:33:00      0.083     0.058    1.9008
   02/06/2018 10:34:00      0.083     0.058    1.8937
   02/06/2018 10:35:00      0.083     0.058    1.8866
   02/06/2018 10:36:00      0.082     0.057    1.8806
   02/06/2018 10:37:00      0.082     0.057    1.8746
   02/06/2018 10:38:00      0.082     0.057    1.8687
   02/06/2018 10:39:00      0.082     0.057    1.8628
   02/06/2018 10:40:00      0.082     0.057    1.8568
   02/06/2018 10:41:00      0.082     0.057    1.8509
   02/06/2018 10:42:00      0.081     0.057    1.8457
   02/06/2018 10:43:00      0.081     0.057    1.8403
   02/06/2018 10:44:00      0.081     0.057    1.8349
   02/06/2018 10:45:00      0.081     0.057    1.8295
   02/06/2018 10:46:00      0.081     0.057    1.8241
   02/06/2018 10:47:00      0.081     0.057    1.8186
   02/06/2018 10:48:00      0.080     0.056    1.8139
   02/06/2018 10:49:00      0.080     0.056    1.8092
   02/06/2018 10:50:00      0.080     0.056    1.8045
   02/06/2018 10:51:00      0.080     0.056    1.7998
   02/06/2018 10:52:00      0.080     0.056    1.7951
   02/06/2018 10:53:00      0.080     0.056    1.7903
   02/06/2018 10:54:00      0.079     0.055    1.7862
   02/06/2018 10:55:00      0.079     0.055    1.7817
   02/06/2018 10:56:00      0.079     0.055    1.7772
   02/06/2018 10:57:00      0.079     0.055    1.7727
   02/06/2018 10:58:00      0.079     0.055    1.7682
   02/06/2018 10:59:00      0.079     0.055    1.7636
   02/06/2018 11:00:00      0.078     0.055    1.7597
   02/06/2018 11:01:00      0.078     0.055    1.7557
   02/06/2018 11:02:00      0.078     0.055    1.7516
   02/06/2018 11:03:00      0.078     0.055    1.7476
   02/06/2018 11:04:00      0.078     0.055    1.7435
   02/06/2018 11:05:00      0.078     0.055    1.7395
   02/06/2018 11:06:00      0.077     0.054    1.7360
   02/06/2018 11:07:00      0.077     0.054    1.7319
   02/06/2018 11:08:00      0.077     0.054    1.7279
   02/06/2018 11:09:00      0.077     0.054    1.7239
   02/06/2018 11:10:00      0.077     0.054    1.7199
   02/06/2018 11:11:00      0.077     0.054    1.7159
   02/06/2018 11:12:00      0.077     0.054    1.7124
   02/06/2018 11:13:00      0.077     0.054    1.7088
   02/06/2018 11:14:00      0.077     0.054    1.7051
   02/06/2018 11:15:00      0.077     0.054    1.7014
   02/06/2018 11:16:00      0.077     0.054    1.6977
   02/06/2018 11:17:00      0.077     0.054    1.6941
   02/06/2018 11:18:00      0.075     0.053    1.6909
   02/06/2018 11:19:00      0.075     0.053    1.6872
   02/06/2018 11:20:00      0.075     0.053    1.6834
   02/06/2018 11:21:00      0.075     0.053    1.6797
   02/06/2018 11:22:00      0.075     0.053    1.6760
   02/06/2018 11:23:00      0.075     0.053    1.6723
   02/06/2018 11:24:00      0.075     0.052    1.6690
   02/06/2018 11:25:00      0.075     0.052    1.6656
   02/06/2018 11:26:00      0.075     0.052    1.6621
   02/06/2018 11:27:00      0.075     0.052    1.6587
   02/06/2018 11:28:00      0.075     0.052    1.6552
   02/06/2018 11:29:00      0.075     0.052    1.6518
   02/06/2018 11:30:00      0.074     0.052    1.6488
   02/06/2018 11:31:00      0.074     0.052    1.6452
   02/06/2018 11:32:00      0.074     0.052    1.6416
   02/06/2018 11:33:00      0.074     0.052    1.6381
   02/06/2018 11:34:00      0.074     0.052    1.6345
   02/06/2018 11:35:00      0.074     0.052    1.6310
   02/06/2018 11:36:00      0.073     0.051    1.6279
   02/06/2018 11:37:00      0.073     0.051    1.6245
   02/06/2018 11:38:00      0.073     0.051    1.6212
   02/06/2018 11:39:00      0.073     0.051    1.6179
   02/06/2018 11:40:00      0.073     0.051    1.6146
   02/06/2018 11:41:00      0.073     0.051    1.6112
   02/06/2018 11:42:00      0.072     0.050    1.6083
   02/06/2018 11:43:00      0.072     0.050    1.6049
   02/06/2018 11:44:00      0.072     0.050    1.6014
   02/06/2018 11:45:00      0.072     0.050    1.5979
   02/06/2018 11:46:00      0.072     0.050    1.5945
   02/06/2018 11:47:00      0.072     0.050    1.5910
   02/06/2018 11:48:00      0.071     0.050    1.5880
   02/06/2018 11:49:00      0.071     0.050    1.5848
   02/06/2018 11:50:00      0.071     0.050    1.5815
   02/06/2018 11:51:00      0.071     0.050    1.5782
   02/06/2018 11:52:00      0.071     0.050    1.5750
   02/06/2018 11:53:00      0.071     0.050    1.5717
   02/06/2018 11:54:00      0.070     0.049    1.5689
   02/06/2018 11:55:00      0.070     0.049    1.5655
   02/06/2018 11:56:00      0.070     0.049    1.5621
   02/06/2018 11:57:00      0.070     0.049    1.5587
   02/06/2018 11:58:00      0.070     0.049    1.5553
   02/06/2018 11:59:00      0.070     0.049    1.5519
   02/06/2018 12:00:00      0.069     0.048    1.5489
   02/06/2018 12:01:00      0.069     0.048    1.5457
   02/06/2018 12:02:00      0.069     0.048    1.5425
   02/06/2018 12:03:00      0.069     0.048    1.5392
   02/06/2018 12:04:00      0.069     0.048    1.5360
   02/06/2018 12:05:00      0.069     0.048    1.5328
   02/06/2018 12:06:00      0.068     0.048    1.5300
   02/06/2018 12:07:00      0.068     0.048    1.5266
   02/06/2018 12:08:00      0.068     0.048    1.5233
   02/06/2018 12:09:00      0.068     0.048    1.5199
   02/06/2018 12:10:00      0.068     0.048    1.5165
   02/06/2018 12:11:00      0.068     0.048    1.5132
   02/06/2018 12:12:00      0.067     0.047    1.5102
   02/06/2018 12:13:00      0.067     0.047    1.5070
   02/06/2018 12:14:00      0.067     0.047    1.5038
   02/06/2018 12:15:00      0.067     0.047    1.5006
   02/06/2018 12:16:00      0.067     0.047    1.4975
   02/06/2018 12:17:00      0.067     0.047    1.4943
   02/06/2018 12:18:00      0.066     0.046    1.4915
   02/06/2018 12:19:00      0.066     0.046    1.4881
   02/06/2018 12:20:00      0.066     0.046    1.4848
   02/06/2018 12:21:00      0.066     0.046    1.4814
   02/06/2018 12:22:00      0.066     0.046    1.4781
   02/06/2018 12:23:00      0.066     0.046    1.4747
   02/06/2018 12:24:00      0.000     0.000    1.4718
   02/06/2018 12:25:00      0.000     0.000    1.4179
   02/06/2018 12:26:00      0.000     0.000    1.3639
   02/06/2018 12:27:00      0.000     0.000    1.3100
   02/06/2018 12:28:00      0.000     0.000    1.2560
   02/06/2018 12:29:00      0.000     0.000    1.2020
   02/06/2018 12:30:00      0.000     0.000    1.1610
   02/06/2018 12:31:00      0.000     0.000    1.1199
   02/06/2018 12:32:00      0.000     0.000    1.0789
   02/06/2018 12:33:00      0.000     0.000    1.0378
   02/06/2018 12:34:00      0.000     0.000    0.9967
   02/06/2018 12:35:00      0.000     0.000    0.9649
   02/06/2018 12:36:00      0.000     0.000    0.9330
   02/06/2018 12:37:00      0.000     0.000    0.9011
   02/06/2018 12:38:00      0.000     0.000    0.8692
   02/06/2018 12:39:00      0.000     0.000    0.8374
   02/06/2018 12:40:00      0.000     0.000    0.8122
   02/06/2018 12:41:00      0.000     0.000    0.7870
   02/06/2018 12:42:00      0.000     0.000    0.7619
   02/06/2018 12:43:00      0.000     0.000    0.7367
   02/06/2018 12:44:00      0.000     0.000    0.7115
   02/06/2018 12:45:00      0.000     0.000    0.6913
   02/06/2018 12:46:00      0.000     0.000    0.6712
   02/06/2018 12:47:00      0.000     0.000    0.6510
   02/06/2018 12:48:00      0.000     0.000    0.6308
   02/06/2018 12:49:00      0.000     0.000    0.6106
   02/06/2018 12:50:00      0.000     0.000    0.5942
   02/06/2018 12:51:00      0.000     0.000    0.5779
   02/06/2018 12:52:00      0.000     0.000    0.5615
   02/06/2018 12:53:00      0.000     0.000    0.5451
   02/06/2018 12:54:00      0.000     0.000    0.5287
   02/06/2018 12:55:00      0.000     0.000    0.5152
   02/06/2018 12:56:00      0.000     0.000    0.5018
   02/06/2018 12:57:00      0.000     0.000    0.4883
   02/06/2018 12:58:00      0.000     0.000    0.4748
   02/06/2018 12:59:00      0.000     0.000    0.4614
   02/06/2018 13:00:00      0.000     0.000    0.4502
   02/06/2018 13:01:00      0.000     0.000    0.4390
   02/06/2018 13:02:00      0.000     0.000    0.4278
   02/06/2018 13:03:00      0.000     0.000    0.4166
   02/06/2018 13:04:00      0.000     0.000    0.4054
   02/06/2018 13:05:00      0.000     0.000    0.3961
   02/06/2018 13:06:00      0.000     0.000    0.3867
   02/06/2018 13:07:00      0.000     0.000    0.3773
   02/06/2018 13:08:00      0.000     0.000    0.3679
   02/06/2018 13:09:00      0.000     0.000    0.3586
   02/06/2018 13:10:00      0.000     0.000    0.3506
   02/06/2018 13:11:00      0.000     0.000    0.3427
   02/06/2018 13:12:00      0.000     0.000    0.3348
   02/06/2018 13:13:00      0.000     0.000    0.3269
   02/06/2018 13:14:00      0.000     0.000    0.3189
   02/06/2018 13:15:00      0.000     0.000    0.3122
   02/06/2018 13:16:00      0.000     0.000    0.3054
   02/06/2018 13:17:00      0.000     0.000    0.2987
   02/06/2018 13:18:00      0.000     0.000    0.2919
   02/06/2018 13:19:00      0.000     0.000    0.2852
   02/06/2018 13:20:00      0.000     0.000    0.2794
   02/06/2018 13:21:00      0.000     0.000    0.2736
   02/06/2018 13:22:00      0.000     0.000    0.2678
   02/06/2018 13:23:00      0.000     0.000    0.2620
   02/06/2018 13:24:00      0.000     0.000    0.2562
   02/06/2018 13:25:00      0.000     0.000    0.2512
   02/06/2018 13:26:00      0.000     0.000    0.2462
   02/06/2018 13:27:00      0.000     0.000    0.2412
   02/06/2018 13:28:00      0.000     0.000    0.2362
   02/06/2018 13:29:00      0.000     0.000    0.2312
   02/06/2018 13:30:00      0.000     0.000    0.2269
   02/06/2018 13:31:00      0.000     0.000    0.2226
   02/06/2018 13:32:00      0.000     0.000    0.2182
   02/06/2018 13:33:00      0.000     0.000    0.2139
   02/06/2018 13:34:00      0.000     0.000    0.2095
   02/06/2018 13:35:00      0.000     0.000    0.2057
   02/06/2018 13:36:00      0.000     0.000    0.2019
   02/06/2018 13:37:00      0.000     0.000    0.1981
   02/06/2018 13:38:00      0.000     0.000    0.1944
   02/06/2018 13:39:00      0.000     0.000    0.1906
   02/06/2018 13:40:00      0.000     0.000    0.1872
   02/06/2018 13:41:00      0.000     0.000    0.1839
   02/06/2018 13:42:00      0.000     0.000    0.1806
   02/06/2018 13:43:00      0.000     0.000    0.1772
   02/06/2018 13:44:00      0.000     0.000    0.1739
   02/06/2018 13:45:00      0.000     0.000    0.1710
   02/06/2018 13:46:00      0.000     0.000    0.1680
   02/06/2018 13:47:00      0.000     0.000    0.1651
   02/06/2018 13:48:00      0.000     0.000    0.1622
   02/06/2018 13:49:00      0.000     0.000    0.1592
   02/06/2018 13:50:00      0.000     0.000    0.1566
   02/06/2018 13:51:00      0.000     0.000    0.1540
   02/06/2018 13:52:00      0.000     0.000    0.1514
   02/06/2018 13:53:00      0.000     0.000    0.1488
   02/06/2018 13:54:00      0.000     0.000    0.1462
   02/06/2018 13:55:00      0.000     0.000    0.1439
   02/06/2018 13:56:00      0.000     0.000    0.1416
   02/06/2018 13:57:00      0.000     0.000    0.1393
   02/06/2018 13:58:00      0.000     0.000    0.1370
   02/06/2018 13:59:00      0.000     0.000    0.1347
   02/06/2018 14:00:00      0.000     0.000    0.1326
   02/06/2018 14:01:00      0.000     0.000    0.1305
   02/06/2018 14:02:00      0.000     0.000    0.1285
   02/06/2018 14:03:00      0.000     0.000    0.1264
   02/06/2018 14:04:00      0.000     0.000    0.1244
   02/06/2018 14:05:00      0.000     0.000    0.1225
   02/06/2018 14:06:00      0.000     0.000    0.1207
   02/06/2018 14:07:00      0.000     0.000    0.1188
   02/06/2018 14:08:00      0.000     0.000    0.1170
   02/06/2018 14:09:00      0.000     0.000    0.1151
   02/06/2018 14:10:00      0.000     0.000    0.1134
   02/06/2018 14:11:00      0.000     0.000    0.1118
   02/06/2018 14:12:00      0.000     0.000    0.1101
   02/06/2018 14:13:00      0.000     0.000    0.1085
   02/06/2018 14:14:00      0.000     0.000    0.1068
   02/06/2018 14:15:00      0.000     0.000    0.1053
   02/06/2018 14:16:00      0.000     0.000    0.1038
   02/06/2018 14:17:00      0.000     0.000    0.1023
   02/06/2018 14:18:00      0.000     0.000    0.1008
   02/06/2018 14:19:00      0.000     0.000    0.0993
   02/06/2018 14:20:00      0.000     0.000    0.0979
   02/06/2018 14:21:00      0.000     0.000    0.0966
   02/06/2018 14:22:00      0.000     0.000    0.0952
   02/06/2018 14:23:00      0.000     0.000    0.0939
   02/06/2018 14:24:00      0.000     0.000    0.0925
   02/06/2018 14:25:00      0.000     0.000    0.0913
   02/06/2018 14:26:00      0.000     0.000    0.0901
   02/06/2018 14:27:00      0.000     0.000    0.0888
   02/06/2018 14:28:00      0.000     0.000    0.0876
   02/06/2018 14:29:00      0.000     0.000    0.0864
   02/06/2018 14:30:00      0.000     0.000    0.0852
   02/06/2018 14:31:00      0.000     0.000    0.0841
   02/06/2018 14:32:00      0.000     0.000    0.0830
   02/06/2018 14:33:00      0.000     0.000    0.0819
   02/06/2018 14:34:00      0.000     0.000    0.0808
   02/06/2018 14:35:00      0.000     0.000    0.0798
   02/06/2018 14:36:00      0.000     0.000    0.0787
   02/06/2018 14:37:00      0.000     0.000    0.0777
   02/06/2018 14:38:00      0.000     0.000    0.0767
   02/06/2018 14:39:00      0.000     0.000    0.0757
   02/06/2018 14:40:00      0.000     0.000    0.0747
   02/06/2018 14:41:00      0.000     0.000    0.0738
   02/06/2018 14:42:00      0.000     0.000    0.0729
   02/06/2018 14:43:00      0.000     0.000    0.0720
   02/06/2018 14:44:00      0.000     0.000    0.0710
   02/06/2018 14:45:00      0.000     0.000    0.0000
   02/06/2018 14:46:00      0.000     0.000    0.0000
   02/06/2018 14:47:00      0.000     0.000    0.0000
   02/06/2018 14:48:00      0.000     0.000    0.0000
   02/06/2018 14:49:00      0.000     0.000    0.0000
   02/06/2018 14:50:00      0.000     0.000    0.0000
   02/06/2018 14:51:00      0.000     0.000    0.0000
   02/06/2018 14:52:00      0.000     0.000    0.0000
   02/06/2018 14:53:00      0.000     0.000    0.0000
   02/06/2018 14:54:00      0.000     0.000    0.0000
   02/06/2018 14:55:00      0.000     0.000    0.0000
   02/06/2018 14:56:00      0.000     0.000    0.0000
   02/06/2018 14:57:00      0.000     0.000    0.0000
   02/06/2018 14:58:00      0.000     0.000    0.0000
   02/06/2018 14:59:00      0.000     0.000    0.0000
   02/06/2018 15:00:00      0.000     0.000    0.0000
   02/06/2018 15:01:00      0.000     0.000    0.0000
   02/06/2018 15:02:00      0.000     0.000    0.0000
   02/06/2018 15:03:00      0.000     0.000    0.0000
   02/06/2018 15:04:00      0.000     0.000    0.0000
   02/06/2018 15:05:00      0.000     0.000    0.0000
   02/06/2018 15:06:00      0.000     0.000    0.0000
   02/06/2018 15:07:00      0.000     0.000    0.0000
   02/06/2018 15:08:00      0.000     0.000    0.0000
   02/06/2018 15:09:00      0.000     0.000    0.0000
   02/06/2018 15:10:00      0.000     0.000    0.0000
   02/06/2018 15:11:00      0.000     0.000    0.0000
   02/06/2018 15:12:00      0.000     0.000    0.0000
   02/06/2018 15:13:00      0.000     0.000    0.0000
   02/06/2018 15:14:00      0.000     0.000    0.0000
   02/06/2018 15:15:00      0.000     0.000    0.0000
   02/06/2018 15:16:00      0.000     0.000    0.0000
   02/06/2018 15:17:00      0.000     0.000    0.0000
   02/06/2018 15:18:00      0.000     0.000    0.0000
   02/06/2018 15:19:00      0.000     0.000    0.0000
   02/06/2018 15:20:00      0.000     0.000    0.0000
   02/06/2018 15:21:00      0.000     0.000    0.0000
   02/06/2018 15:22:00      0.000     0.000    0.0000
   02/06/2018 15:23:00      0.000     0.000    0.0000
   02/06/2018 15:24:00      0.000     0.000    0.0000
   02/06/2018 15:25:00      0.000     0.000    0.0000
   02/06/2018 15:26:00      0.000     0.000    0.0000
   02/06/2018 15:27:00      0.000     0.000    0.0000
   02/06/2018 15:28:00      0.000     0.000    0.0000
   02/06/2018 15:29:00      0.000     0.000    0.0000
   02/06/2018 15:30:00      0.000     0.000    0.0000
   02/06/2018 15:31:00      0.000     0.000    0.0000
   02/06/2018 15:32:00      0.000     0.000    0.0000
   02/06/2018 15:33:00      0.000     0.000    0.0000
   02/06/2018 15:34:00      0.000     0.000    0.0000
   02/06/2018 15:35:00      0.000     0.000    0.0000
   02/06/2018 15:36:00      0.000     0.000    0.0000
   02/06/2018 15:37:00      0.000     0.000    0.0000
   02/06/2018 15:38:00      0.000     0.000    0.0000
   02/06/2018 15:39:00      0.000     0.000    0.0000
   02/06/2018 15:40:00      0.000     0.000    0.0000
   02/06/2018 15:41:00      0.000     0.000    0.0000
   02/06/2018 15:42:00      0.000     0.000    0.0000
   02/06/2018 15:43:00      0.000     0.000    0.0000
   02/06/2018 15:44:00      0.000     0.000    0.0000
   02/06/2018 15:45:00      0.000     0.000    0.0000
   02/06/2018 15:46:00      0.000     0.000    0.0000
   02/06/2018 15:47:00      0.000     0.000    0.0000
   02/06/2018 15:48:00      0.000     0.000    0.0000
   02/06/2018 15:49:00      0.000     0.000    0.0000
   02/06/2018 15:50:00      0.000     0.000    0.0000
   02/06/2018 15:51:00      0.000     0.000    0.0000
   02/06/2018 15:52:00      0.000     0.000    0.0000
   02/06/2018 15:53:00      0.000     0.000    0.0000
   02/06/2018 15:54:00      0.000     0.000    0.0000
   02/06/2018 15:55:00      0.000     0.000    0.0000
   02/06/2018 15:56:00      0.000     0.000    0.0000
   02/06/2018 15:57:00      0.000     0.000    0.0000
   02/06/2018 15:58:00      0.000     0.000    0.0000
   02/06/2018 15:59:00      0.000     0.000    0.0000
   02/06/2018 16:00:00      0.000     0.000    0.0000
   02/06/2018 16:01:00      0.000     0.000    0.0000
   02/06/2018 16:02:00      0.000     0.000    0.0000
   02/06/2018 16:03:00      0.000     0.000    0.0000
   02/06/2018 16:04:00      0.000     0.000    0.0000
   02/06/2018 16:05:00      0.000     0.000    0.0000
   02/06/2018 16:06:00      0.000     0.000    0.0000
   02/06/2018 16:07:00      0.000     0.000    0.0000
   02/06/2018 16:08:00      0.000     0.000    0.0000
   02/06/2018 16:09:00      0.000     0.000    0.0000
   02/06/2018 16:10:00      0.000     0.000    0.0000
   02/06/2018 16:11:00      0.000     0.000    0.0000
   02/06/2018 16:12:00      0.000     0.000    0.0000
   02/06/2018 16:13:00      0.000     0.000    0.0000
   02/06/2018 16:14:00      0.000     0.000    0.0000
   02/06/2018 16:15:00      0.000     0.000    0.0000
   02/06/2018 16:16:00      0.000     0.000    0.0000
   02/06/2018 16:17:00      0.000     0.000    0.0000
   02/06/2018 16:18:00      0.000     0.000    0.0000
   02/06/2018 16:19:00      0.000     0.000    0.0000
   02/06/2018 16:20:00      0.000     0.000    0.0000
   02/06/2018 16:21:00      0.000     0.000    0.0000
   02/06/2018 16:22:00      0.000     0.000    0.0000
   02/06/2018 16:23:00      0.000     0.000    0.0000
   02/06/2018 16:24:00      0.000     0.000    0.0000
   02/06/2018 16:25:00      0.000     0.000    0.0000
   02/06/2018 16:26:00      0.000     0.000    0.0000
   02/06/2018 16:27:00      0.000     0.000    0.0000
   02/06/2018 16:28:00      0.000     0.000    0.0000
   02/06/2018 16:29:00      0.000     0.000    0.0000
   02/06/2018 16:30:00      0.000     0.000    0.0000
   02/06/2018 16:31:00      0.000     0.000    0.0000
   02/06/2018 16:32:00      0.000     0.000    0.0000
   02/06/2018 16:33:00      0.000     0.000    0.0000
   02/06/2018 16:34:00      0.000     0.000    0.0000
   02/06/2018 16:35:00      0.000     0.000    0.0000
   02/06/2018 16:36:00      0.000     0.000    0.0000
   02/06/2018 16:37:00      0.000     0.000    0.0000
   02/06/2018 16:38:00      0.000     0.000    0.0000
   02/06/2018 16:39:00      0.000     0.000    0.0000
   02/06/2018 16:40:00      0.000     0.000    0.0000
   02/06/2018 16:41:00      0.000     0.000    0.0000
   02/06/2018 16:42:00      0.000     0.000    0.0000
   02/06/2018 16:43:00      0.000     0.000    0.0000
   02/06/2018 16:44:00      0.000     0.000    0.0000
   02/06/2018 16:45:00      0.000     0.000    0.0000
   02/06/2018 16:46:00      0.000     0.000    0.0000
   02/06/2018 16:47:00      0.000     0.000    0.0000
   02/06/2018 16:48:00      0.000     0.000    0.0000
   02/06/2018 16:49:00      0.000     0.000    0.0000
   02/06/2018 16:50:00      0.000     0.000    0.0000
   02/06/2018 16:51:00      0.000     0.000    0.0000
   02/06/2018 16:52:00      0.000     0.000    0.0000
   02/06/2018 16:53:00      0.000     0.000    0.0000
   02/06/2018 16:54:00      0.000     0.000    0.0000
   02/06/2018 16:55:00      0.000     0.000    0.0000
   02/06/2018 16:56:00      0.000     0.000    0.0000
   02/06/2018 16:57:00      0.000     0.000    0.0000
   02/06/2018 16:58:00      0.000     0.000    0.0000
   02/06/2018 16:59:00      0.000     0.000    0.0000
   02/06/2018 17:00:00      0.000     0.000    0.0000
   02/06/2018 17:01:00      0.000     0.000    0.0000
   02/06/2018 17:02:00      0.000     0.000    0.0000
   02/06/2018 17:03:00      0.000     0.000    0.0000
   02/06/2018 17:04:00      0.000     0.000    0.0000
   02/06/2018 17:05:00      0.000     0.000    0.0000
   02/06/2018 17:06:00      0.000     0.000    0.0000
   02/06/2018 17:07:00      0.000     0.000    0.0000
   02/06/2018 17:08:00      0.000     0.000    0.0000
   02/06/2018 17:09:00      0.000     0.000    0.0000
   02/06/2018 17:10:00      0.000     0.000    0.0000
   02/06/2018 17:11:00      0.000     0.000    0.0000
   02/06/2018 17:12:00      0.000     0.000    0.0000
   02/06/2018 17:13:00      0.000     0.000    0.0000
   02/06/2018 17:14:00      0.000     0.000    0.0000
   02/06/2018 17:15:00      0.000     0.000    0.0000
   02/06/2018 17:16:00      0.000     0.000    0.0000
   02/06/2018 17:17:00      0.000     0.000    0.0000
   02/06/2018 17:18:00      0.000     0.000    0.0000
   02/06/2018 17:19:00      0.000     0.000    0.0000
   02/06/2018 17:20:00      0.000     0.000    0.0000
   02/06/2018 17:21:00      0.000     0.000    0.0000
   02/06/2018 17:22:00      0.000     0.000    0.0000
   02/06/2018 17:23:00      0.000     0.000    0.0000
   02/06/2018 17:24:00      0.000     0.000    0.0000
   02/06/2018 17:25:00      0.000     0.000    0.0000
   02/06/2018 17:26:00      0.000     0.000    0.0000
   02/06/2018 17:27:00      0.000     0.000    0.0000
   02/06/2018 17:28:00      0.000     0.000    0.0000
   02/06/2018 17:29:00      0.000     0.000    0.0000
   02/06/2018 17:30:00      0.000     0.000    0.0000
   02/06/2018 17:31:00      0.000     0.000    0.0000
   02/06/2018 17:32:00      0.000     0.000    0.0000
   02/06/2018 17:33:00      0.000     0.000    0.0000
   02/06/2018 17:34:00      0.000     0.000    0.0000
   02/06/2018 17:35:00      0.000     0.000    0.0000
   02/06/2018 17:36:00      0.000     0.000    0.0000
   02/06/2018 17:37:00      0.000     0.000    0.0000
   02/06/2018 17:38:00      0.000     0.000    0.0000
   02/06/2018 17:39:00      0.000     0.000    0.0000
   02/06/2018 17:40:00      0.000     0.000    0.0000
   02/06/2018 17:41:00      0.000     0.000    0.0000
   02/06/2018 17:42:00      0.000     0.000    0.0000
   02/06/2018 17:43:00      0.000     0.000    0.0000
   02/06/2018 17:44:00      0.000     0.000    0.0000
   02/06/2018 17:45:00      0.000     0.000    0.0000
   02/06/2018 17:46:00      0.000     0.000    0.0000
   02/06/2018 17:47:00      0.000     0.000    0.0000
   02/06/2018 17:48:00      0.000     0.000    0.0000
   02/06/2018 17:49:00      0.000     0.000    0.0000
   02/06/2018 17:50:00      0.000     0.000    0.0000
   02/06/2018 17:51:00      0.000     0.000    0.0000
   02/06/2018 17:52:00      0.000     0.000    0.0000
   02/06/2018 17:53:00      0.000     0.000    0.0000
   02/06/2018 17:54:00      0.000     0.000    0.0000
   02/06/2018 17:55:00      0.000     0.000    0.0000
   02/06/2018 17:56:00      0.000     0.000    0.0000
   02/06/2018 17:57:00      0.000     0.000    0.0000
   02/06/2018 17:58:00      0.000     0.000    0.0000
   02/06/2018 17:59:00      0.000     0.000    0.0000
   02/06/2018 18:00:00      0.000     0.000    0.0000
   02/06/2018 18:01:00      0.000     0.000    0.0000
   02/06/2018 18:02:00      0.000     0.000    0.0000
   02/06/2018 18:03:00      0.000     0.000    0.0000
   02/06/2018 18:04:00      0.000     0.000    0.0000
   02/06/2018 18:05:00      0.000     0.000    0.0000
   02/06/2018 18:06:00      0.000     0.000    0.0000
   02/06/2018 18:07:00      0.000     0.000    0.0000
   02/06/2018 18:08:00      0.000     0.000    0.0000
   02/06/2018 18:09:00      0.000     0.000    0.0000
   02/06/2018 18:10:00      0.000     0.000    0.0000
   02/06/2018 18:11:00      0.000     0.000    0.0000
   02/06/2018 18:12:00      0.000     0.000    0.0000
   02/06/2018 18:13:00      0.000     0.000    0.0000
   02/06/2018 18:14:00      0.000     0.000    0.0000
   02/06/2018 18:15:00      0.000     0.000    0.0000
   02/06/2018 18:16:00      0.000     0.000    0.0000
   02/06/2018 18:17:00      0.000     0.000    0.0000
   02/06/2018 18:18:00      0.000     0.000    0.0000
   02/06/2018 18:19:00      0.000     0.000    0.0000
   02/06/2018 18:20:00      0.000     0.000    0.0000
   02/06/2018 18:21:00      0.000     0.000    0.0000
   02/06/2018 18:22:00      0.000     0.000    0.0000
   02/06/2018 18:23:00      0.000     0.000    0.0000
   02/06/2018 18:24:00      0.000     0.000    0.0000
   02/06/2018 18:25:00      0.000     0.000    0.0000
   02/06/2018 18:26:00      0.000     0.000    0.0000
   02/06/2018 18:27:00      0.000     0.000    0.0000
   02/06/2018 18:28:00      0.000     0.000    0.0000
   02/06/2018 18:29:00      0.000     0.000    0.0000
   02/06/2018 18:30:00      0.000     0.000    0.0000
   02/06/2018 18:31:00      0.000     0.000    0.0000
   02/06/2018 18:32:00      0.000     0.000    0.0000
   02/06/2018 18:33:00      0.000     0.000    0.0000
   02/06/2018 18:34:00      0.000     0.000    0.0000
   02/06/2018 18:35:00      0.000     0.000    0.0000
   02/06/2018 18:36:00      0.000     0.000    0.0000
   02/06/2018 18:37:00      0.000     0.000    0.0000
   02/06/2018 18:38:00      0.000     0.000    0.0000
   02/06/2018 18:39:00      0.000     0.000    0.0000
   02/06/2018 18:40:00      0.000     0.000    0.0000
   02/06/2018 18:41:00      0.000     0.000    0.0000
   02/06/2018 18:42:00      0.000     0.000    0.0000
   02/06/2018 18:43:00      0.000     0.000    0.0000
   02/06/2018 18:44:00      0.000     0.000    0.0000
   02/06/2018 18:45:00      0.000     0.000    0.0000
   02/06/2018 18:46:00      0.000     0.000    0.0000
   02/06/2018 18:47:00      0.000     0.000    0.0000
   02/06/2018 18:48:00      0.000     0.000    0.0000
   02/06/2018 18:49:00      0.000     0.000    0.0000
   02/06/2018 18:50:00      0.000     0.000    0.0000
   02/06/2018 18:51:00      0.000     0.000    0.0000
   02/06/2018 18:52:00      0.000     0.000    0.0000
   02/06/2018 18:53:00      0.000     0.000    0.0000
   02/06/2018 18:54:00      0.000     0.000    0.0000
   02/06/2018 18:55:00      0.000     0.000    0.0000
   02/06/2018 18:56:00      0.000     0.000    0.0000
   02/06/2018 18:57:00      0.000     0.000    0.0000
   02/06/2018 18:58:00      0.000     0.000    0.0000
   02/06/2018 18:59:00      0.000     0.000    0.0000
   02/06/2018 19:00:00      0.000     0.000    0.0000
   02/06/2018 19:01:00      0.000     0.000    0.0000
   02/06/2018 19:02:00      0.000     0.000    0.0000
   02/06/2018 19:03:00      0.000     0.000    0.0000
   02/06/2018 19:04:00      0.000     0.000    0.0000
   02/06/2018 19:05:00      0.000     0.000    0.0000
   02/06/2018 19:06:00      0.000     0.000    0.0000
   02/06/2018 19:07:00      0.000     0.000    0.0000
   02/06/2018 19:08:00      0.000     0.000    0.0000
   02/06/2018 19:09:00      0.000     0.000    0.0000
   02/06/2018 19:10:00      0.000     0.000    0.0000
   02/06/2018 19:11:00      0.000     0.000    0.0000
   02/06/2018 19:12:00      0.000     0.000    0.0000
   02/06/2018 19:13:00      0.000     0.000    0.0000
   02/06/2018 19:14:00      0.000     0.000    0.0000
   02/06/2018 19:15:00      0.000     0.000    0.0000
   02/06/2018 19:16:00      0.000     0.000    0.0000
   02/06/2018 19:17:00      0.000     0.000    0.0000
   02/06/2018 19:18:00      0.000     0.000    0.0000
   02/06/2018 19:19:00      0.000     0.000    0.0000
   02/06/2018 19:20:00      0.000     0.000    0.0000
   02/06/2018 19:21:00      0.000     0.000    0.0000
   02/06/2018 19:22:00      0.000     0.000    0.0000
   02/06/2018 19:23:00      0.000     0.000    0.0000
   02/06/2018 19:24:00      0.000     0.000    0.0000
   02/06/2018 19:25:00      0.000     0.000    0.0000
   02/06/2018 19:26:00      0.000     0.000    0.0000
[...]
   02/06/2018 21:10:00      1.327     0.000     1.000     1.000
   02/06/2018 21:11:00      1.326     0.000     1.000     1.000
   02/06/2018 21:12:00      1.326     0.000     1.000     1.000
   02/06/2018 21:13:00      1.325     0.000     1.000     1.000
   02/06/2018 21:14:00      1.324     0.000     1.000     1.000
   02/06/2018 21:15:00      1.324     0.000     1.000     1.000
   02/06/2018 21:16:00      1.327     0.000     1.000     1.000
   02/06/2018 21:17:00      1.327     0.000     1.000     1.000
   02/06/2018 21:18:00      1.326     0.000     1.000     1.000
   02/06/2018 21:19:00      1.325     0.000     1.000     1.000
   02/06/2018 21:20:00      1.325     0.000     1.000     1.000
   02/06/2018 21:21:00      1.324     0.000     1.000     1.000
   02/06/2018 21:22:00      1.323     0.000     1.000     1.000
   02/06/2018 21:23:00      1.322     0.000     1.000     1.000
   02/06/2018 21:24:00      1.322     0.000     1.000     1.000
   02/06/2018 21:25:00      1.321     0.000     1.000     1.000
   02/06/2018 21:26:00      1.320     0.000     1.000     1.000
   02/06/2018 21:27:00      1.320     0.000     1.000     1.000
   02/06/2018 21:28:00      1.319     0.000     1.000     1.000
   02/06/2018 21:29:00      1.318     0.000     1.000     1.000
   02/06/2018 21:30:00      1.318     0.000     1.000     1.000
   02/06/2018 21:31:00      1.318     0.000     1.000     1.000
   02/06/2018 21:32:00      1.317     0.000     1.000     1.000
   02/06/2018 21:33:00      1.316     0.000     1.000     1.000
   02/06/2018 21:34:00      1.316     0.000     1.000     1.000
   02/06/2018 21:35:00      1.315     0.000     1.000     1.000
   02/06/2018 21:36:00      1.314     0.000     1.000     1.000
   02/06/2018 21:37:00      1.314     0.000     1.000     1.000
   02/06/2018 21:38:00      1.313     0.000     1.000     1.000
   02/06/2018 21:39:00      1.312     0.000     1.000     1.000
   02/06/2018 21:40:00      1.312     0.000     1.000     1.000
   02/06/2018 21:41:00      1.311     0.000     1.000     1.000
   02/06/2018 21:42:00      1.310     0.000     1.000     1.000
   02/06/2018 21:43:00      1.310     0.000     1.000     1.000
   02/06/2018 21:44:00      1.309     0.000     1.000     1.000
   02/06/2018 21:45:00      1.308     0.000     1.000     1.000
   02/06/2018 21:46:00      1.325     0.000     1.000     1.000
   02/06/2018 21:47:00      1.324     0.000     1.000     1.000
   02/06/2018 21:48:00      1.323     0.000     1.000     1.000
   02/06/2018 21:49:00      1.323     0.000     1.000     1.000
   02/06/2018 21:50:00      1.322     0.000     1.000     1.000
   02/06/2018 21:51:00      1.321     0.000     1.000     1.000
   02/06/2018 21:52:00      1.321     0.000     1.000     1.000
   02/06/2018 21:53:00      1.320     0.000     1.000     1.000
   02/06/2018 21:54:00      1.319     0.000     1.000     1.000
   02/06/2018 21:55:00      1.319     0.000     1.000     1.000
   02/06/2018 21:56:00      1.318     0.000     1.000     1.000
   02/06/2018 21:57:00      1.317     0.000     1.000     1.000
   02/06/2018 21:58:00      1.317     0.000     1.000     1.000
   02/06/2018 21:59:00      1.316     0.000     1.000     1.000
   02/06/2018 22:00:00      1.315     0.000     1.000     1.000
   02/06/2018 22:01:00      1.314     0.000     1.000     1.000
   02/06/2018 22:02:00      1.314     0.000     1.000     1.000
   02/06/2018 22:03:00      1.313     0.000     1.000     1.000
   02/06/2018 22:04:00      1.312     0.000     1.000     1.000
   02/06/2018 22:05:00      1.312     0.000     1.000     1.000
   02/06/2018 22:06:00      1.311     0.000     1.000     1.000
   02/06/2018 22:07:00      1.310     0.000     1.000     1.000
   02/06/2018 22:08:00      1.310     0.000     1.000     1.000
   02/06/2018 22:09:00      1.309     0.000     1.000     1.000
   02/06/2018 22:10:00      1.308     0.000     1.000     1.000
   02/06/2018 22:11:00      1.308     0.000     1.000     1.000
   02/06/2018 22:12:00      1.307     0.000     1.000     1.000
   02/06/2018 22:13:00      1.306     0.000     1.000     1.000
   02/06/2018 22:14:00      1.306     0.000     1.000     1.000
   02/06/2018 22:15:00      1.305     0.000     1.000     1.000
   02/06/2018 22:16:00      1.317     0.000     1.000     1.000
   02/06/2018 22:17:00      1.316     0.000     1.000     1.000
   02/06/2018 22:18:00      1.316     0.000     1.000     1.000
   02/06/2018 22:19:00      1.315     0.000     1.000     1.000
   02/06/2018 22:20:00      1.314     0.000     1.000     1.000
   02/06/2018 22:21:00      1.313     0.000     1.000     1.000
   02/06/2018 22:22:00      1.313     0.000     1.000     1.000
   02/06/2018 22:23:00      1.312     0.000     1.000     1.000
   02/06/2018 22:24:00      1.311     0.000     1.000     1.000
   02/06/2018 22:25:00      1.311     0.000     1.000     1.000
   02/06/2018 22:26:00      1.310     0.000     1.000     1.000
   02/06/2018 22:27:00      1.309     0.000     1.000     1.000
   02/06/2018 22:28:00      1.309     0.000     1.000     1.000
   02/06/2018 22:29:00      1.308     0.000     1.000     1.000
   02/06/2018 22:30:00      1.307     0.000     1.000     1.000
   02/06/2018 22:31:00      1.359     0.000     1.000     1.000
   02/06/2018 22:32:00      1.359     0.000     1.000     1.000
   02/06/2018 22:33:00      1.359     0.000     1.000     1.000
   02/06/2018 22:34:00      1.359     0.000     1.000     1.000
   02/06/2018 22:35:00      1.359     0.000     1.000     1.000
   02/06/2018 22:36:00      1.359     0.000     1.000     1.000
   02/06/2018 22:37:00      1.359     0.000     1.000     1.000
   02/06/2018 22:38:00      1.359     0.000     1.000     1.000
   02/06/2018 22:39:00      1.359     0.000     1.000     1.000
   02/06/2018 22:40:00      1.359     0.000     1.000     1.000
   02/06/2018 22:41:00      1.359     0.000     1.000     1.000
   02/06/2018 22:42:00      1.359     0.000     1.000     1.000
   02/06/2018 22:43:00      1.358     0.000     1.000     1.000
   02/06/2018 22:44:00      1.358     0.000     1.000     1.000
   02/06/2018 22:45:00      1.358     0.000     1.000     1.000
   02/06/2018 22:46:00      1.610     0.000     0.980     0.980
   02/06/2018 22:47:00      1.610     0.000     0.980     0.980
   02/06/2018 22:48:00      1.609     0.000     0.980     0.980
   02/06/2018 22:49:00      1.608     0.000     0.980     0.980
   02/06/2018 22:50:00      1.607     0.000     0.980     0.980
   02/06/2018 22:51:00      1.606     0.000     0.980     0.980
   02/06/2018 22:52:00      1.605     0.000     0.980     0.980
   02/06/2018 22:53:00      1.604     0.000     0.980     0.980
   02/06/2018 22:54:00      1.603     0.000     0.980     0.980
   02/06/2018 22:55:00      1.602     0.000     0.980     0.980
   02/06/2018 22:56:00      1.601     0.000     0.980     0.980
   02/06/2018 22:57:00      1.600     0.000     0.980     0.980
   02/06/2018 22:58:00      1.599     0.000     0.980     0.980
   02/06/2018 22:59:00      1.598     0.000     0.980     0.980
   02/06/2018 23:00:00      1.597     0.000     0.980     0.980
   02/06/2018 23:01:00      1.375     0.000     1.000     1.000
   02/06/2018 23:02:00      1.375     0.000     1.000     1.000
   02/06/2018 23:03:00      1.374     0.000     1.000     1.000
   02/06/2018 23:04:00      1.374     0.000     1.000     1.000
   02/06/2018 23:05:00      1.374     0.000     1.000     1.000
   02/06/2018 23:06:00      1.374     0.000     1.000     1.000
   02/06/2018 23:07:00      1.374     0.000     1.000     1.000
   02/06/2018 23:08:00      1.373     0.000     1.000     1.000
   02/06/2018 23:09:00      1.373     0.000     1.000     1.000
   02/06/2018 23:10:00      1.373     0.000     1.000     1.000
   02/06/2018 23:11:00      1.373     0.000     1.000     1.000
   02/06/2018 23:12:00      1.373     0.000     1.000     1.000
   02/06/2018 23:13:00      1.373     0.000     1.000     1.000
   02/06/2018 23:14:00      1.372     0.000     1.000     1.000
   02/06/2018 23:15:00      1.372     0.000     1.000     1.000
   02/06/2018 23:16:00      1.366     0.000     1.000     1.000
   02/06/2018 23:17:00      1.365     0.000     1.000     1.000
   02/06/2018 23:18:00      1.365     0.000     1.000     1.000
   02/06/2018 23:19:00      1.365     0.000     1.000     1.000
   02/06/2018 23:20:00      1.365     0.000     1.000     1.000
   02/06/2018 23:21:00      1.365     0.000     1.000     1.000
   02/06/2018 23:22:00      1.365     0.000     1.000     1.000
   02/06/2018 23:23:00      1.364     0.000     1.000     1.000
   02/06/2018 23:24:00      1.364     0.000     1.000     1.000
   02/06/2018 23:25:00      1.364     0.000     1.000     1.000
   02/06/2018 23:26:00      1.364     0.000     1.000     1.000
   02/06/2018 23:27:00      1.364     0.000     1.000     1.000
   02/06/2018 23:28:00      1.364     0.000     1.000     1.000
   02/06/2018 23:29:00      1.363     0.000     1.000     1.000
   02/06/2018 23:30:00      1.363     0.000     1.000     1.000
   02/06/2018 23:31:00      1.377     0.000     1.000     1.000
   02/06/2018 23:32:00      1.376     0.000     1.000     1.000
   02/06/2018 23:33:00      1.376     0.000     1.000     1.000
   02/06/2018 23:34:00      1.376     0.000     1.000     1.000
   02/06/2018 23:35:00      1.376     0.000     1.000     1.000
   02/06/2018 23:36:00      1.375     0.000     1.000     1.000
   02/06/2018 23:37:00      1.375     0.000     1.000     1.000
   02/06/2018 23:38:00      1.375     0.000     1.000     1.000
   02/06/2018 23:39:00      1.374     0.000     1.000     1.000
   02/06/2018 23:40:00      1.374     0.000     1.000     1.000
   02/06/2018 23:41:00      1.374     0.000     1.000     1.000
   02/06/2018 23:42:00      1.374     0.000     1.000     1.000
   02/06/2018 23:43:00      1.373     0.000     1.000     1.000
   02/06/2018 23:44:00      1.373     0.000     1.000     1.000
   02/06/2018 23:45:00      1.373     0.000     1.000     1.000
  
  
  **************************        Volume         Depth
  Runoff Quantity Continuity     acre-feet        inches
  **************************     ---------       -------
  Total Precipitation ......        35.933         3.080
  Evaporation Loss .........         0.000         0.000
  Infiltration Loss ........        23.284         1.996
  Surface Runoff ...........        12.546         1.075
  Final Storage ............         0.135         0.012
  Continuity Error (%) .....        -0.087
  
  
  **************************        Volume        Volume
  Flow Routing Continuity        acre-feet      10^6 gal
  **************************     ---------     ---------
  Dry Weather Inflow .......         0.000         0.000
  Wet Weather Inflow .......        12.560         4.093
  Groundwater Inflow .......         0.000         0.000
  RDII Inflow ..............         0.000         0.000
  External Inflow ..........         0.000         0.000
  External Outflow .........         6.065         1.976
  Flooding Loss ............         0.989         0.322
  Evaporation Loss .........         0.000         0.000
  Exfiltration Loss ........         0.000         0.000
  Initial Stored Volume ....         2.066         0.673
  Final Stored Volume ......         7.907         2.577
  Continuity Error (%) .....        -2.297
  
  
  *************************
  Highest Continuity Errors
  *************************
  Node J2 (-5.48%)
  
  
  ***************************
  Time-Step Critical Elements
  ***************************
  None
  
  
  ********************************
  Highest Flow Instability Indexes
  ********************************
  Link R1 (30)
  Link R2 (30)
  Link C2 (28)
  
  
  *************************
  Routing Time Step Summary
  *************************
  Minimum Time Step           :     3.74 sec
  Average Time Step           :    10.00 sec
  Maximum Time Step           :    10.00 sec
  Percent in Steady State     :     0.00
  Average Iterations per Step :     6.08
  Percent Not Converging      :    64.73
  
  
  ***************************
  Subcatchment Runoff Summary
  ***************************
  
  --------------------------------------------------------------------------------------------------------
                            Total      Total      Total      Total      Total       Total     Peak  Runoff
                           Precip      Runon       Evap      Infil     Runoff      Runoff   Runoff   Coeff
  Subcatchment                 in         in         in         in         in    10^6 gal      CFS
  --------------------------------------------------------------------------------------------------------
  S1                         3.08       0.00       0.00       2.00       1.07        2.04    98.17   0.348
  S2                         3.08       0.00       0.00       1.99       1.08        2.05    98.32   0.350
  
  
  ******************
  Node Depth Summary
  ******************
  
  ---------------------------------------------------------------------------------
                                 Average  Maximum  Maximum  Time of Max    Reported
                                   Depth    Depth      HGL   Occurrence   Max Depth
  Node                 Type         Feet     Feet     Feet  days hr:min        Feet
  ---------------------------------------------------------------------------------
  J2                   JUNCTION     2.54     3.70    93.70     0  11:31        3.69
  J3                   JUNCTION     1.69     2.00    90.00     0  06:18        2.00
  Out1                 OUTFALL      0.74     0.80    87.80     0  06:26        0.80
  St1                  STORAGE      2.93     4.29    94.29     0  10:00        4.29
  St2                  STORAGE      2.91     4.04    94.04     0  11:30        4.04
  
  
  *******************
  Node Inflow Summary
  *******************
  
  -------------------------------------------------------------------------------------------------
                                  Maximum  Maximum                  Lateral       Total        Flow
                                  Lateral    Total  Time of Max      Inflow      Inflow     Balance
                                   Inflow   Inflow   Occurrence      Volume      Volume       Error
  Node                 Type           CFS      CFS  days hr:min    10^6 gal    10^6 gal     Percent
  -------------------------------------------------------------------------------------------------
  J2                   JUNCTION      0.00     5.62     0  00:00           0        2.19      -5.192
  J3                   JUNCTION      0.00     4.45     0  10:45           0         2.3       0.117
  Out1                 OUTFALL       0.00     3.47     0  06:28           0        1.98       0.000
  St1                  STORAGE      98.17    98.69     0  06:18        2.04        2.38       0.194
  St2                  STORAGE      98.32    98.32     0  06:00        2.05        2.39       0.320
  
  
  **********************
  Node Surcharge Summary
  **********************
  
  Surcharging occurs when water rises above the top of the highest conduit.
  ---------------------------------------------------------------------
                                               Max. Height   Min. Depth
                                   Hours       Above Crown    Below Rim
  Node                 Type      Surcharged           Feet         Feet
  ---------------------------------------------------------------------
  J2                   JUNCTION       17.88          2.696        0.304
  J3                   JUNCTION       18.54          1.000        0.000
  
  
  *********************
  Node Flooding Summary
  *********************
  
  Flooding refers to all water that overflows a node, whether it ponds or not.
  --------------------------------------------------------------------------
                                                             Total   Maximum
                                 Maximum   Time of Max       Flood    Ponded
                        Hours       Rate    Occurrence      Volume     Depth
  Node                 Flooded       CFS   days hr:min    10^6 gal      Feet
  --------------------------------------------------------------------------
  J3                     17.44      0.98      0  10:45       0.322     0.000
  
  
  **********************
  Storage Volume Summary
  **********************
  
  --------------------------------------------------------------------------------------------------
                         Average     Avg  Evap Exfil       Maximum     Max    Time of Max    Maximum
                          Volume    Pcnt  Pcnt  Pcnt        Volume    Pcnt     Occurrence    Outflow
  Storage Unit          1000 ft3    Full  Loss  Loss      1000 ft3    Full    days hr:min        CFS
  --------------------------------------------------------------------------------------------------
  St1                    175.588      59     0     0       257.231      86       0  10:00       2.85
  St2                    174.713      58     0     0       242.613      81       0  11:30       4.32
  
  
  ***********************
  Outfall Loading Summary
  ***********************
  
  -----------------------------------------------------------
                         Flow       Avg       Max       Total
                         Freq      Flow      Flow      Volume
  Outfall Node           Pcnt       CFS       CFS    10^6 gal
  -----------------------------------------------------------
  Out1                  99.96      3.09      3.47       1.976
  -----------------------------------------------------------
  System                99.96      3.09      3.47       1.976
  
  
  ********************
  Link Flow Summary
  ********************
  
  -----------------------------------------------------------------------------
                                 Maximum  Time of Max   Maximum    Max/    Max/
                                  |Flow|   Occurrence   |Veloc|    Full    Full
  Link                 Type          CFS  days hr:min    ft/sec    Flow   Depth
  -----------------------------------------------------------------------------
  C2                   CONDUIT      4.45     0  10:45      5.79    1.36    1.00
  C3                   CONDUIT      3.47     0  06:28      4.67    1.50    0.90
  R1                   ORIFICE      2.85     0  11:30                          
  R2                   ORIFICE      4.32     0  06:12                          
  
  
  ***************************
  Flow Classification Summary
  ***************************
  
  -------------------------------------------------------------------------------------
                      Adjusted    ---------- Fraction of Time in Flow Class ---------- 
                       /Actual         Up    Down  Sub   Sup   Up    Down  Norm  Inlet 
  Conduit               Length    Dry  Dry   Dry   Crit  Crit  Crit  Crit  Ltd   Ctrl  
  -------------------------------------------------------------------------------------
  C2                      1.00   0.00  0.00  0.00  1.00  0.00  0.00  0.00  0.23  0.00
  C3                      1.00   0.00  0.00  0.00  1.00  0.00  0.00  0.00  0.00  0.00
  
  
  *************************
  Conduit Surcharge Summary
  *************************
  
  ----------------------------------------------------------------------------
                                                           Hours        Hours 
                         --------- Hours Full --------   Above Full   Capacity
  Conduit                Both Ends  Upstream  Dnstream   Normal Flow   Limited
  ----------------------------------------------------------------------------
  C2                         17.88     17.88     18.54     17.56        17.56
  C3                          0.01     18.54      0.01     19.18         0.01
  

  Analysis begun on:  Sun Jul 28 19:56:10 2019
  Analysis ended on:  Sun Jul 28 19:56:12 2019
  Total elapsed time: 00:00:02