
  EPA STORM WATER MANAGEMENT MODEL - VERSION 5.1 (Build 5.2.0.dev3)
  --------------------------------------------------------------

  
  *********************************************************
  NOTE: The summary statistics displayed in this report are
  based on results found at every computational time step,  
  not just on results from each reporting time step.
  *********************************************************
  
  ****************
  Analysis Options
  ****************
  Flow Units ............... CFS
  Process Models:
    Rainfall/Runoff ........ YES
    RDII ................... NO
    Snowmelt ............... NO
    Groundwater ............ NO
    Flow Routing ........... YES
    Ponding Allowed ........ NO
    Water Quality .......... NO
  Infiltration Method ...... MODIFIED_GREEN_AMPT
  Flow Routing Method ...... DYNWAVE
  Starting Date ............ 02/06/2018 00:00:00
  Ending Date .............. 02/07/2018 00:00:00
  Antecedent Dry Days ...... 0.0
  Report Time Step ......... 00:01:00
  Wet Time Step ............ 00:05:00
  Dry Time Step ............ 01:00:00
  Routing Time Step ........ 10.00 sec
  Variable Time Step ....... YES
  Maximum Trials ........... 8
  Number of Threads ........ 1
  Head Tolerance ........... 0.005000 ft
  
  
  *********************
  Control Actions Taken
  *********************
   02/06/2018: 00:00:00 Link R1 setting changed to   0.00 by Control ToolkitAPI
   02/06/2018: 00:00:00 Link R2 setting changed to   0.00 by Control ToolkitAPI
   02/06/2018: 00:00:00 Link R1 setting changed to   0.81 by Control ToolkitAPI
   02/06/2018: 00:00:00 Link R2 setting changed to   1.00 by Control ToolkitAPI
   02/06/2018: 00:15:02 Link R1 setting changed to   0.82 by Control ToolkitAPI
   02/06/2018: 00:15:02 Link R2 setting changed to   1.00 by Control ToolkitAPI
   02/06/2018: 00:30:02 Link R1 setting changed to   0.82 by Control ToolkitAPI
   02/06/2018: 00:30:02 Link R2 setting changed to   1.00 by Control ToolkitAPI
   02/06/2018: 00:45:02 Link R1 setting changed to   0.79 by Control ToolkitAPI
   02/06/2018: 00:45:02 Link R2 setting changed to   1.00 by Control ToolkitAPI
   02/06/2018: 01:00:02 Link R1 setting changed to   0.74 by Control ToolkitAPI
   02/06/2018: 01:00:02 Link R2 setting changed to   1.00 by Control ToolkitAPI
   02/06/2018: 01:15:02 Link R1 setting changed to   0.73 by Control ToolkitAPI
   02/06/2018: 01:15:02 Link R2 setting changed to   1.00 by Control ToolkitAPI
   02/06/2018: 01:30:02 Link R1 setting changed to   0.71 by Control ToolkitAPI
   02/06/2018: 01:30:02 Link R2 setting changed to   1.00 by Control ToolkitAPI
   02/06/2018: 01:45:02 Link R1 setting changed to   0.70 by Control ToolkitAPI
   02/06/2018: 01:45:02 Link R2 setting changed to   1.00 by Control ToolkitAPI
   02/06/2018: 02:00:02 Link R1 setting changed to   0.71 by Control ToolkitAPI
   02/06/2018: 02:00:02 Link R2 setting changed to   1.00 by Control ToolkitAPI
   02/06/2018: 02:15:02 Link R1 setting changed to   0.71 by Control ToolkitAPI
   02/06/2018: 02:15:02 Link R2 setting changed to   1.00 by Control ToolkitAPI
   02/06/2018: 02:30:02 Link R1 setting changed to   0.68 by Control ToolkitAPI
   02/06/2018: 02:30:02 Link R2 setting changed to   1.00 by Control ToolkitAPI
   02/06/2018: 02:45:02 Link R1 setting changed to   0.68 by Control ToolkitAPI
   02/06/2018: 02:45:02 Link R2 setting changed to   1.00 by Control ToolkitAPI
   02/06/2018: 03:00:02 Link R1 setting changed to   0.66 by Control ToolkitAPI
   02/06/2018: 03:00:02 Link R2 setting changed to   1.00 by Control ToolkitAPI
   02/06/2018: 03:15:02 Link R1 setting changed to   0.63 by Control ToolkitAPI
   02/06/2018: 03:15:02 Link R2 setting changed to   1.00 by Control ToolkitAPI
   02/06/2018: 03:30:02 Link R1 setting changed to   0.62 by Control ToolkitAPI
   02/06/2018: 03:30:02 Link R2 setting changed to   1.00 by Control ToolkitAPI
   02/06/2018: 03:45:02 Link R1 setting changed to   0.66 by Control ToolkitAPI
   02/06/2018: 03:45:02 Link R2 setting changed to   1.00 by Control ToolkitAPI
   02/06/2018: 04:00:02 Link R1 setting changed to   0.68 by Control ToolkitAPI
   02/06/2018: 04:00:02 Link R2 setting changed to   1.00 by Control ToolkitAPI
   02/06/2018: 04:15:02 Link R1 setting changed to   0.70 by Control ToolkitAPI
   02/06/2018: 04:15:02 Link R2 setting changed to   1.00 by Control ToolkitAPI
   02/06/2018: 04:30:02 Link R1 setting changed to   0.69 by Control ToolkitAPI
   02/06/2018: 04:30:02 Link R2 setting changed to   1.00 by Control ToolkitAPI
   02/06/2018: 04:45:02 Link R1 setting changed to   0.63 by Control ToolkitAPI
   02/06/2018: 04:45:02 Link R2 setting changed to   1.00 by Control ToolkitAPI
   02/06/2018: 05:00:02 Link R1 setting changed to   0.67 by Control ToolkitAPI
   02/06/2018: 05:00:02 Link R2 setting changed to   1.00 by Control ToolkitAPI
   02/06/2018: 05:15:02 Link R1 setting changed to   0.75 by Control ToolkitAPI
   02/06/2018: 05:15:02 Link R2 setting changed to   1.00 by Control ToolkitAPI
   02/06/2018: 05:30:02 Link R1 setting changed to   0.76 by Control ToolkitAPI
   02/06/2018: 05:30:02 Link R2 setting changed to   1.00 by Control ToolkitAPI
   02/06/2018: 05:45:02 Link R1 setting changed to   0.72 by Control ToolkitAPI
   02/06/2018: 05:45:02 Link R2 setting changed to   1.00 by Control ToolkitAPI
   02/06/2018: 06:00:10 Link R1 setting changed to   0.72 by Control ToolkitAPI
   02/06/2018: 06:00:10 Link R2 setting changed to   1.00 by Control ToolkitAPI
   02/06/2018: 06:15:10 Link R1 setting changed to   0.70 by Control ToolkitAPI
   02/06/2018: 06:15:10 Link R2 setting changed to   1.00 by Control ToolkitAPI
   02/06/2018: 06:30:10 Link R1 setting changed to   0.64 by Control ToolkitAPI
   02/06/2018: 06:30:10 Link R2 setting changed to   1.00 by Control ToolkitAPI
   02/06/2018: 06:45:10 Link R1 setting changed to   0.61 by Control ToolkitAPI
   02/06/2018: 06:45:10 Link R2 setting changed to   1.00 by Control ToolkitAPI
   02/06/2018: 07:00:10 Link R1 setting changed to   0.63 by Control ToolkitAPI
   02/06/2018: 07:00:10 Link R2 setting changed to   1.00 by Control ToolkitAPI
   02/06/2018: 07:15:10 Link R1 setting changed to   0.61 by Control ToolkitAPI
   02/06/2018: 07:15:10 Link R2 setting changed to   1.00 by Control ToolkitAPI
   02/06/2018: 07:30:10 Link R1 setting changed to   0.57 by Control ToolkitAPI
   02/06/2018: 07:30:10 Link R2 setting changed to   1.00 by Control ToolkitAPI
   02/06/2018: 07:45:10 Link R1 setting changed to   0.55 by Control ToolkitAPI
   02/06/2018: 07:45:10 Link R2 setting changed to   1.00 by Control ToolkitAPI
   02/06/2018: 08:00:10 Link R1 setting changed to   0.52 by Control ToolkitAPI
   02/06/2018: 08:00:10 Link R2 setting changed to   1.00 by Control ToolkitAPI
   02/06/2018: 08:15:10 Link R1 setting changed to   0.51 by Control ToolkitAPI
   02/06/2018: 08:15:10 Link R2 setting changed to   1.00 by Control ToolkitAPI
   02/06/2018: 08:30:10 Link R1 setting changed to   0.52 by Control ToolkitAPI
   02/06/2018: 08:30:10 Link R2 setting changed to   1.00 by Control ToolkitAPI
   02/06/2018: 08:45:10 Link R1 setting changed to   0.55 by Control ToolkitAPI
   02/06/2018: 08:45:10 Link R2 setting changed to   1.00 by Control ToolkitAPI
   02/06/2018: 09:00:10 Link R1 setting changed to   0.59 by Control ToolkitAPI
   02/06/2018: 09:00:10 Link R2 setting changed to   1.00 by Control ToolkitAPI
   02/06/2018: 09:15:10 Link R1 setting changed to   0.60 by Control ToolkitAPI
   02/06/2018: 09:15:10 Link R2 setting changed to   1.00 by Control ToolkitAPI
   02/06/2018: 09:30:10 Link R1 setting changed to   0.57 by Control ToolkitAPI
   02/06/2018: 09:30:10 Link R2 setting changed to   1.00 by Control ToolkitAPI
   02/06/2018: 09:45:10 Link R1 setting changed to   0.59 by Control ToolkitAPI
   02/06/2018: 09:45:10 Link R2 setting changed to   1.00 by Control ToolkitAPI
   02/06/2018: 10:00:10 Link R1 setting changed to   0.63 by Control ToolkitAPI
   02/06/2018: 10:00:10 Link R2 setting changed to   1.00 by Control ToolkitAPI
   02/06/2018: 10:15:10 Link R1 setting changed to   0.65 by Control ToolkitAPI
   02/06/2018: 10:15:10 Link R2 setting changed to   1.00 by Control ToolkitAPI
   02/06/2018: 10:30:10 Link R1 setting changed to   0.66 by Control ToolkitAPI
   02/06/2018: 10:30:10 Link R2 setting changed to   1.00 by Control ToolkitAPI
   02/06/2018: 10:45:10 Link R1 setting changed to   0.69 by Control ToolkitAPI
   02/06/2018: 10:45:10 Link R2 setting changed to   1.00 by Control ToolkitAPI
   02/06/2018: 11:00:10 Link R1 setting changed to   0.67 by Control ToolkitAPI
   02/06/2018: 11:00:10 Link R2 setting changed to   1.00 by Control ToolkitAPI
   02/06/2018: 11:15:10 Link R1 setting changed to   0.66 by Control ToolkitAPI
   02/06/2018: 11:15:10 Link R2 setting changed to   1.00 by Control ToolkitAPI
   02/06/2018: 11:30:10 Link R1 setting changed to   0.67 by Control ToolkitAPI
   02/06/2018: 11:30:10 Link R2 setting changed to   1.00 by Control ToolkitAPI
   02/06/2018: 11:45:10 Link R1 setting changed to   0.71 by Control ToolkitAPI
   02/06/2018: 11:45:10 Link R2 setting changed to   1.00 by Control ToolkitAPI
   02/06/2018: 12:00:10 Link R1 setting changed to   0.74 by Control ToolkitAPI
   02/06/2018: 12:00:10 Link R2 setting changed to   1.00 by Control ToolkitAPI
   02/06/2018: 12:15:10 Link R1 setting changed to   0.73 by Control ToolkitAPI
   02/06/2018: 12:15:10 Link R2 setting changed to   1.00 by Control ToolkitAPI
   02/06/2018: 12:30:10 Link R1 setting changed to   0.73 by Control ToolkitAPI
   02/06/2018: 12:30:10 Link R2 setting changed to   1.00 by Control ToolkitAPI
   02/06/2018: 12:45:10 Link R1 setting changed to   0.72 by Control ToolkitAPI
   02/06/2018: 12:45:10 Link R2 setting changed to   1.00 by Control ToolkitAPI
   02/06/2018: 13:00:10 Link R1 setting changed to   0.74 by Control ToolkitAPI
   02/06/2018: 13:00:10 Link R2 setting changed to   1.00 by Control ToolkitAPI
   02/06/2018: 13:15:10 Link R1 setting changed to   0.74 by Control ToolkitAPI
   02/06/2018: 13:15:10 Link R2 setting changed to   1.00 by Control ToolkitAPI
   02/06/2018: 13:30:10 Link R1 setting changed to   0.77 by Control ToolkitAPI
   02/06/2018: 13:30:10 Link R2 setting changed to   1.00 by Control ToolkitAPI
   02/06/2018: 13:45:10 Link R1 setting changed to   0.76 by Control ToolkitAPI
   02/06/2018: 13:45:10 Link R2 setting changed to   1.00 by Control ToolkitAPI
   02/06/2018: 14:00:10 Link R1 setting changed to   0.75 by Control ToolkitAPI
   02/06/2018: 14:00:10 Link R2 setting changed to   1.00 by Control ToolkitAPI
   02/06/2018: 14:15:10 Link R1 setting changed to   0.79 by Control ToolkitAPI
   02/06/2018: 14:15:10 Link R2 setting changed to   1.00 by Control ToolkitAPI
   02/06/2018: 14:30:10 Link R1 setting changed to   0.79 by Control ToolkitAPI
   02/06/2018: 14:30:10 Link R2 setting changed to   1.00 by Control ToolkitAPI
   02/06/2018: 14:45:10 Link R1 setting changed to   0.77 by Control ToolkitAPI
   02/06/2018: 14:45:10 Link R2 setting changed to   1.00 by Control ToolkitAPI
   02/06/2018: 15:00:10 Link R1 setting changed to   0.72 by Control ToolkitAPI
   02/06/2018: 15:00:10 Link R2 setting changed to   1.00 by Control ToolkitAPI
   02/06/2018: 15:15:10 Link R1 setting changed to   0.70 by Control ToolkitAPI
   02/06/2018: 15:15:10 Link R2 setting changed to   1.00 by Control ToolkitAPI
   02/06/2018: 15:30:10 Link R1 setting changed to   0.68 by Control ToolkitAPI
   02/06/2018: 15:30:10 Link R2 setting changed to   1.00 by Control ToolkitAPI
   02/06/2018: 15:45:10 Link R1 setting changed to   0.68 by Control ToolkitAPI
   02/06/2018: 15:45:10 Link R2 setting changed to   1.00 by Control ToolkitAPI
   02/06/2018: 16:00:10 Link R1 setting changed to   0.62 by Control ToolkitAPI
   02/06/2018: 16:00:10 Link R2 setting changed to   1.00 by Control ToolkitAPI
   02/06/2018: 16:15:10 Link R1 setting changed to   0.64 by Control ToolkitAPI
   02/06/2018: 16:15:10 Link R2 setting changed to   1.00 by Control ToolkitAPI
   02/06/2018: 16:30:10 Link R1 setting changed to   0.64 by Control ToolkitAPI
   02/06/2018: 16:30:10 Link R2 setting changed to   1.00 by Control ToolkitAPI
   02/06/2018: 16:45:10 Link R1 setting changed to   0.60 by Control ToolkitAPI
   02/06/2018: 16:45:10 Link R2 setting changed to   1.00 by Control ToolkitAPI
   02/06/2018: 17:00:10 Link R1 setting changed to   0.66 by Control ToolkitAPI
   02/06/2018: 17:00:10 Link R2 setting changed to   1.00 by Control ToolkitAPI
   02/06/2018: 17:15:10 Link R1 setting changed to   0.65 by Control ToolkitAPI
   02/06/2018: 17:15:10 Link R2 setting changed to   0.99 by Control ToolkitAPI
   02/06/2018: 17:30:10 Link R1 setting changed to   0.63 by Control ToolkitAPI
   02/06/2018: 17:30:10 Link R2 setting changed to   0.99 by Control ToolkitAPI
   02/06/2018: 17:45:10 Link R1 setting changed to   0.57 by Control ToolkitAPI
   02/06/2018: 17:45:10 Link R2 setting changed to   0.95 by Control ToolkitAPI
   02/06/2018: 18:00:10 Link R1 setting changed to   0.59 by Control ToolkitAPI
   02/06/2018: 18:00:10 Link R2 setting changed to   0.91 by Control ToolkitAPI
   02/06/2018: 18:15:10 Link R1 setting changed to   0.59 by Control ToolkitAPI
   02/06/2018: 18:15:10 Link R2 setting changed to   0.94 by Control ToolkitAPI
   02/06/2018: 18:30:10 Link R1 setting changed to   0.54 by Control ToolkitAPI
   02/06/2018: 18:30:10 Link R2 setting changed to   0.93 by Control ToolkitAPI
   02/06/2018: 18:45:10 Link R1 setting changed to   0.53 by Control ToolkitAPI
   02/06/2018: 18:45:10 Link R2 setting changed to   0.93 by Control ToolkitAPI
   02/06/2018: 19:00:10 Link R1 setting changed to   0.57 by Control ToolkitAPI
   02/06/2018: 19:00:10 Link R2 setting changed to   0.95 by Control ToolkitAPI
   02/06/2018: 19:15:10 Link R1 setting changed to   0.56 by Control ToolkitAPI
   02/06/2018: 19:15:10 Link R2 setting changed to   0.94 by Control ToolkitAPI
   02/06/2018: 19:30:10 Link R1 setting changed to   0.58 by Control ToolkitAPI
   02/06/2018: 19:30:10 Link R2 setting changed to   0.92 by Control ToolkitAPI
   02/06/2018: 19:45:10 Link R1 setting changed to   0.63 by Control ToolkitAPI
   02/06/2018: 19:45:10 Link R2 setting changed to   0.88 by Control ToolkitAPI
   02/06/2018: 20:00:10 Link R1 setting changed to   0.61 by Control ToolkitAPI
   02/06/2018: 20:00:10 Link R2 setting changed to   0.85 by Control ToolkitAPI
   02/06/2018: 20:15:10 Link R1 setting changed to   0.60 by Control ToolkitAPI
   02/06/2018: 20:15:10 Link R2 setting changed to   0.82 by Control ToolkitAPI
   02/06/2018: 20:30:10 Link R1 setting changed to   0.66 by Control ToolkitAPI
   02/06/2018: 20:30:10 Link R2 setting changed to   0.82 by Control ToolkitAPI
   02/06/2018: 20:45:10 Link R1 setting changed to   0.66 by Control ToolkitAPI
   02/06/2018: 20:45:10 Link R2 setting changed to   0.76 by Control ToolkitAPI
   02/06/2018: 21:00:10 Link R1 setting changed to   0.66 by Control ToolkitAPI
   02/06/2018: 21:00:10 Link R2 setting changed to   0.76 by Control ToolkitAPI
   02/06/2018: 21:15:10 Link R1 setting changed to   0.71 by Control ToolkitAPI
   02/06/2018: 21:15:10 Link R2 setting changed to   0.79 by Control ToolkitAPI
   02/06/2018: 21:30:10 Link R1 setting changed to   0.71 by Control ToolkitAPI
   02/06/2018: 21:30:10 Link R2 setting changed to   0.80 by Control ToolkitAPI
   02/06/2018: 21:45:10 Link R1 setting changed to   0.68 by Control ToolkitAPI
   02/06/2018: 21:45:10 Link R2 setting changed to   0.75 by Control ToolkitAPI
   02/06/2018: 22:00:10 Link R1 setting changed to   0.70 by Control ToolkitAPI
   02/06/2018: 22:00:10 Link R2 setting changed to   0.75 by Control ToolkitAPI
   02/06/2018: 22:15:10 Link R1 setting changed to   0.66 by Control ToolkitAPI
   02/06/2018: 22:15:10 Link R2 setting changed to   0.72 by Control ToolkitAPI
   02/06/2018: 22:30:10 Link R1 setting changed to   0.70 by Control ToolkitAPI
   02/06/2018: 22:30:10 Link R2 setting changed to   0.66 by Control ToolkitAPI
   02/06/2018: 22:45:10 Link R1 setting changed to   0.70 by Control ToolkitAPI
   02/06/2018: 22:45:10 Link R2 setting changed to   0.62 by Control ToolkitAPI
   02/06/2018: 23:00:10 Link R1 setting changed to   0.73 by Control ToolkitAPI
   02/06/2018: 23:00:10 Link R2 setting changed to   0.65 by Control ToolkitAPI
   02/06/2018: 23:15:10 Link R1 setting changed to   0.67 by Control ToolkitAPI
   02/06/2018: 23:15:10 Link R2 setting changed to   0.66 by Control ToolkitAPI
   02/06/2018: 23:30:10 Link R1 setting changed to   0.66 by Control ToolkitAPI
   02/06/2018: 23:30:10 Link R2 setting changed to   0.67 by Control ToolkitAPI

  
  ********************
  Subcatchment Results
  ********************
  
  <<< Subcatchment S1 >>>
  ---------------------------------------------------
  Date        Time        Precip.    Losses    Runoff
                            in/hr     in/hr       CFS
  ---------------------------------------------------
   02/06/2018 00:01:00      0.028     0.020    0.0000
   02/06/2018 00:02:00      0.028     0.020    0.0000
   02/06/2018 00:03:00      0.028     0.020    0.0000
   02/06/2018 00:04:00      0.028     0.020    0.0000
   02/06/2018 00:05:00      0.028     0.020    0.0000
   02/06/2018 00:06:00      0.028     0.020    0.0000
   02/06/2018 00:07:00      0.028     0.020    0.0000
   02/06/2018 00:08:00      0.028     0.020    0.0000
   02/06/2018 00:09:00      0.028     0.020    0.0000
   02/06/2018 00:10:00      0.028     0.020    0.0000
   02/06/2018 00:11:00      0.028     0.020    0.0000
   02/06/2018 00:12:00      0.028     0.020    0.0000
   02/06/2018 00:13:00      0.028     0.020    0.0000
   02/06/2018 00:14:00      0.028     0.020    0.0000
   02/06/2018 00:15:00      0.068     0.048    0.0000
   02/06/2018 00:16:00      0.068     0.048    0.0000
   02/06/2018 00:17:00      0.068     0.048    0.0000
   02/06/2018 00:18:00      0.068     0.048    0.0000
   02/06/2018 00:19:00      0.068     0.048    0.0000
   02/06/2018 00:20:00      0.068     0.048    0.0000
   02/06/2018 00:21:00      0.068     0.048    0.0000
   02/06/2018 00:22:00      0.068     0.048    0.0000
   02/06/2018 00:23:00      0.068     0.048    0.0000
   02/06/2018 00:24:00      0.068     0.048    0.0000
   02/06/2018 00:25:00      0.068     0.048    0.0000
   02/06/2018 00:26:00      0.068     0.048    0.0756
   02/06/2018 00:27:00      0.068     0.048    0.0820
   02/06/2018 00:28:00      0.068     0.048    0.0885
   02/06/2018 00:29:00      0.068     0.048    0.0949
   02/06/2018 00:30:00      0.068     0.048    0.1013
   02/06/2018 00:31:00      0.068     0.048    0.1078
   02/06/2018 00:32:00      0.068     0.048    0.1143
   02/06/2018 00:33:00      0.068     0.048    0.1207
   02/06/2018 00:34:00      0.068     0.048    0.1272
   02/06/2018 00:35:00      0.068     0.048    0.1337
   02/06/2018 00:36:00      0.068     0.048    0.1399
   02/06/2018 00:37:00      0.068     0.048    0.1460
   02/06/2018 00:38:00      0.068     0.048    0.1522
   02/06/2018 00:39:00      0.068     0.048    0.1584
   02/06/2018 00:40:00      0.068     0.048    0.1646
   02/06/2018 00:41:00      0.068     0.048    0.1703
   02/06/2018 00:42:00      0.068     0.048    0.1760
   02/06/2018 00:43:00      0.068     0.048    0.1817
   02/06/2018 00:44:00      0.068     0.048    0.1875
   02/06/2018 00:45:00      0.072     0.050    0.1932
   02/06/2018 00:46:00      0.072     0.050    0.1990
   02/06/2018 00:47:00      0.072     0.050    0.2048
   02/06/2018 00:48:00      0.072     0.050    0.2106
   02/06/2018 00:49:00      0.072     0.050    0.2164
   02/06/2018 00:50:00      0.072     0.050    0.2222
   02/06/2018 00:51:00      0.072     0.050    0.2297
   02/06/2018 00:52:00      0.072     0.050    0.2372
   02/06/2018 00:53:00      0.072     0.050    0.2446
   02/06/2018 00:54:00      0.072     0.050    0.2521
   02/06/2018 00:55:00      0.072     0.050    0.2596
   02/06/2018 00:56:00      0.072     0.050    0.2758
   02/06/2018 00:57:00      0.072     0.050    0.2921
   02/06/2018 00:58:00      0.072     0.050    0.3083
   02/06/2018 00:59:00      0.072     0.050    0.3245
   02/06/2018 01:00:00      0.072     0.050    0.3408
   02/06/2018 01:01:00      0.072     0.050    0.3619
   02/06/2018 01:02:00      0.072     0.050    0.3830
   02/06/2018 01:03:00      0.072     0.050    0.4041
   02/06/2018 01:04:00      0.072     0.050    0.4252
   02/06/2018 01:05:00      0.072     0.050    0.4463
   02/06/2018 01:06:00      0.072     0.050    0.4696
   02/06/2018 01:07:00      0.072     0.050    0.4930
   02/06/2018 01:08:00      0.072     0.050    0.5164
   02/06/2018 01:09:00      0.072     0.050    0.5397
   02/06/2018 01:10:00      0.072     0.050    0.5631
   02/06/2018 01:11:00      0.072     0.050    0.5869
   02/06/2018 01:12:00      0.072     0.050    0.6107
   02/06/2018 01:13:00      0.072     0.050    0.6345
   02/06/2018 01:14:00      0.072     0.050    0.6583
   02/06/2018 01:15:00      0.076     0.053    0.6821
   02/06/2018 01:16:00      0.076     0.053    0.7077
   02/06/2018 01:17:00      0.076     0.053    0.7332
   02/06/2018 01:18:00      0.076     0.053    0.7588
   02/06/2018 01:19:00      0.076     0.053    0.7843
   02/06/2018 01:20:00      0.076     0.053    0.8098
   02/06/2018 01:21:00      0.076     0.053    0.8336
   02/06/2018 01:22:00      0.076     0.053    0.8574
   02/06/2018 01:23:00      0.076     0.053    0.8812
   02/06/2018 01:24:00      0.076     0.053    0.9050
   02/06/2018 01:25:00      0.076     0.053    0.9288
   02/06/2018 01:26:00      0.076     0.053    0.9503
   02/06/2018 01:27:00      0.076     0.053    0.9717
   02/06/2018 01:28:00      0.076     0.053    0.9932
   02/06/2018 01:29:00      0.076     0.053    1.0147
   02/06/2018 01:30:00      0.076     0.053    1.0362
   02/06/2018 01:31:00      0.076     0.053    1.0551
   02/06/2018 01:32:00      0.076     0.053    1.0740
   02/06/2018 01:33:00      0.076     0.053    1.0929
   02/06/2018 01:34:00      0.076     0.053    1.1119
   02/06/2018 01:35:00      0.076     0.053    1.1308
   02/06/2018 01:36:00      0.076     0.053    1.1472
   02/06/2018 01:37:00      0.076     0.053    1.1635
   02/06/2018 01:38:00      0.076     0.053    1.1799
   02/06/2018 01:39:00      0.076     0.053    1.1963
   02/06/2018 01:40:00      0.076     0.053    1.2127
   02/06/2018 01:41:00      0.076     0.053    1.2266
   02/06/2018 01:42:00      0.076     0.053    1.2406
   02/06/2018 01:43:00      0.076     0.053    1.2545
   02/06/2018 01:44:00      0.076     0.053    1.2685
   02/06/2018 01:45:00      0.076     0.053    1.2825
   02/06/2018 01:46:00      0.076     0.053    1.2942
   02/06/2018 01:47:00      0.076     0.053    1.3060
   02/06/2018 01:48:00      0.076     0.053    1.3177
   02/06/2018 01:49:00      0.076     0.053    1.3295
   02/06/2018 01:50:00      0.076     0.053    1.3413
   02/06/2018 01:51:00      0.076     0.053    1.3511
   02/06/2018 01:52:00      0.076     0.053    1.3609
   02/06/2018 01:53:00      0.076     0.053    1.3707
   02/06/2018 01:54:00      0.076     0.053    1.3805
   02/06/2018 01:55:00      0.076     0.053    1.3903
   02/06/2018 01:56:00      0.076     0.053    1.3985
   02/06/2018 01:57:00      0.076     0.053    1.4066
   02/06/2018 01:58:00      0.076     0.053    1.4147
   02/06/2018 01:59:00      0.076     0.053    1.4229
   02/06/2018 02:00:00      0.084     0.059    1.4310
   02/06/2018 02:01:00      0.084     0.059    1.4441
   02/06/2018 02:02:00      0.084     0.059    1.4573
   02/06/2018 02:03:00      0.084     0.059    1.4705
   02/06/2018 02:04:00      0.084     0.059    1.4836
   02/06/2018 02:05:00      0.084     0.059    1.4968
   02/06/2018 02:06:00      0.084     0.059    1.5076
   02/06/2018 02:07:00      0.084     0.059    1.5184
   02/06/2018 02:08:00      0.084     0.059    1.5292
   02/06/2018 02:09:00      0.084     0.059    1.5401
   02/06/2018 02:10:00      0.084     0.059    1.5509
   02/06/2018 02:11:00      0.084     0.059    1.5598
   02/06/2018 02:12:00      0.084     0.059    1.5686
   02/06/2018 02:13:00      0.084     0.059    1.5775
   02/06/2018 02:14:00      0.084     0.059    1.5863
   02/06/2018 02:15:00      0.088     0.062    1.5952
   02/06/2018 02:16:00      0.088     0.062    1.6057
   02/06/2018 02:17:00      0.088     0.062    1.6163
   02/06/2018 02:18:00      0.088     0.062    1.6268
   02/06/2018 02:19:00      0.088     0.062    1.6374
   02/06/2018 02:20:00      0.088     0.062    1.6479
   02/06/2018 02:21:00      0.088     0.062    1.6565
   02/06/2018 02:22:00      0.088     0.062    1.6651
   02/06/2018 02:23:00      0.088     0.062    1.6736
   02/06/2018 02:24:00      0.088     0.062    1.6822
   02/06/2018 02:25:00      0.088     0.062    1.6908
   02/06/2018 02:26:00      0.088     0.062    1.6977
   02/06/2018 02:27:00      0.088     0.062    1.7046
   02/06/2018 02:28:00      0.088     0.062    1.7115
   02/06/2018 02:29:00      0.088     0.062    1.7185
   02/06/2018 02:30:00      0.100     0.070    1.7254
   02/06/2018 02:31:00      0.100     0.070    1.7413
   02/06/2018 02:32:00      0.100     0.070    1.7572
   02/06/2018 02:33:00      0.100     0.070    1.7731
   02/06/2018 02:34:00      0.100     0.070    1.7890
   02/06/2018 02:35:00      0.100     0.070    1.8050
   02/06/2018 02:36:00      0.100     0.070    1.8178
   02/06/2018 02:37:00      0.100     0.070    1.8307
   02/06/2018 02:38:00      0.100     0.070    1.8436
   02/06/2018 02:39:00      0.100     0.070    1.8564
   02/06/2018 02:40:00      0.100     0.070    1.8693
   02/06/2018 02:41:00      0.100     0.070    1.8796
   02/06/2018 02:42:00      0.100     0.070    1.8900
   02/06/2018 02:43:00      0.100     0.070    1.9003
   02/06/2018 02:44:00      0.100     0.070    1.9106
   02/06/2018 02:45:00      0.104     0.073    1.9210
   02/06/2018 02:46:00      0.104     0.073    1.9328
   02/06/2018 02:47:00      0.104     0.073    1.9446
   02/06/2018 02:48:00      0.104     0.073    1.9565
   02/06/2018 02:49:00      0.104     0.073    1.9683
   02/06/2018 02:50:00      0.104     0.073    1.9801
   02/06/2018 02:51:00      0.104     0.073    1.9896
   02/06/2018 02:52:00      0.104     0.073    1.9990
   02/06/2018 02:53:00      0.104     0.073    2.0084
   02/06/2018 02:54:00      0.104     0.073    2.0179
   02/06/2018 02:55:00      0.104     0.073    2.0273
   02/06/2018 02:56:00      0.104     0.073    2.0348
   02/06/2018 02:57:00      0.104     0.073    2.0423
   02/06/2018 02:58:00      0.104     0.073    2.0497
   02/06/2018 02:59:00      0.104     0.073    2.0572
   02/06/2018 03:00:00      0.116     0.081    2.0647
   02/06/2018 03:01:00      0.116     0.081    2.0816
   02/06/2018 03:02:00      0.116     0.081    2.0986
   02/06/2018 03:03:00      0.116     0.081    2.1155
   02/06/2018 03:04:00      0.116     0.081    2.1324
   02/06/2018 03:05:00      0.116     0.081    2.1494
   02/06/2018 03:06:00      0.116     0.081    2.1628
   02/06/2018 03:07:00      0.116     0.081    2.1762
   02/06/2018 03:08:00      0.116     0.081    2.1897
   02/06/2018 03:09:00      0.116     0.081    2.2031
   02/06/2018 03:10:00      0.116     0.081    2.2165
   02/06/2018 03:11:00      0.116     0.081    2.2271
   02/06/2018 03:12:00      0.116     0.081    2.2377
   02/06/2018 03:13:00      0.116     0.081    2.2483
   02/06/2018 03:14:00      0.116     0.081    2.2589
   02/06/2018 03:15:00      0.116     0.081    2.2695
   02/06/2018 03:16:00      0.116     0.081    2.2778
   02/06/2018 03:17:00      0.116     0.081    2.2862
   02/06/2018 03:18:00      0.116     0.081    2.2945
   02/06/2018 03:19:00      0.116     0.081    2.3028
   02/06/2018 03:20:00      0.116     0.081    2.3111
   02/06/2018 03:21:00      0.116     0.081    2.3176
   02/06/2018 03:22:00      0.116     0.081    2.3241
   02/06/2018 03:23:00      0.116     0.081    2.3306
   02/06/2018 03:24:00      0.116     0.081    2.3371
   02/06/2018 03:25:00      0.116     0.081    2.3436
   02/06/2018 03:26:00      0.116     0.081    2.3487
   02/06/2018 03:27:00      0.116     0.081    2.3538
   02/06/2018 03:28:00      0.116     0.081    2.3588
   02/06/2018 03:29:00      0.116     0.081    2.3639
   02/06/2018 03:30:00      0.120     0.084    2.3690
   02/06/2018 03:31:00      0.120     0.084    2.3767
   02/06/2018 03:32:00      0.120     0.084    2.3845
   02/06/2018 03:33:00      0.120     0.084    2.3923
   02/06/2018 03:34:00      0.120     0.084    2.4001
   02/06/2018 03:35:00      0.120     0.084    2.4078
   02/06/2018 03:36:00      0.120     0.084    2.4139
   02/06/2018 03:37:00      0.120     0.084    2.4199
   02/06/2018 03:38:00      0.120     0.084    2.4260
   02/06/2018 03:39:00      0.120     0.084    2.4320
   02/06/2018 03:40:00      0.120     0.084    2.4381
   02/06/2018 03:41:00      0.120     0.084    2.4428
   02/06/2018 03:42:00      0.120     0.084    2.4475
   02/06/2018 03:43:00      0.120     0.084    2.4522
   02/06/2018 03:44:00      0.120     0.084    2.4569
   02/06/2018 03:45:00      0.132     0.092    2.4616
   02/06/2018 03:46:00      0.132     0.092    2.4769
   02/06/2018 03:47:00      0.132     0.092    2.4922
   02/06/2018 03:48:00      0.132     0.092    2.5075
   02/06/2018 03:49:00      0.132     0.092    2.5228
   02/06/2018 03:50:00      0.132     0.092    2.5381
   02/06/2018 03:51:00      0.132     0.092    2.5500
   02/06/2018 03:52:00      0.132     0.092    2.5620
   02/06/2018 03:53:00      0.132     0.092    2.5739
   02/06/2018 03:54:00      0.132     0.092    2.5858
   02/06/2018 03:55:00      0.132     0.092    2.5977
   02/06/2018 03:56:00      0.132     0.092    2.6069
   02/06/2018 03:57:00      0.132     0.092    2.6161
   02/06/2018 03:58:00      0.132     0.092    2.6253
   02/06/2018 03:59:00      0.132     0.092    2.6345
   02/06/2018 04:00:00      0.144     0.101    2.6438
   02/06/2018 04:01:00      0.144     0.101    2.6629
   02/06/2018 04:02:00      0.144     0.101    2.6820
   02/06/2018 04:03:00      0.144     0.101    2.7011
   02/06/2018 04:04:00      0.144     0.101    2.7202
   02/06/2018 04:05:00      0.144     0.101    2.7393
   02/06/2018 04:06:00      0.144     0.101    2.7540
   02/06/2018 04:07:00      0.144     0.101    2.7688
   02/06/2018 04:08:00      0.144     0.101    2.7836
   02/06/2018 04:09:00      0.144     0.101    2.7983
   02/06/2018 04:10:00      0.144     0.101    2.8131
   02/06/2018 04:11:00      0.144     0.101    2.8244
   02/06/2018 04:12:00      0.144     0.101    2.8358
   02/06/2018 04:13:00      0.144     0.101    2.8471
   02/06/2018 04:14:00      0.144     0.101    2.8584
   02/06/2018 04:15:00      0.168     0.118    2.8698
   02/06/2018 04:16:00      0.168     0.118    2.9032
   02/06/2018 04:17:00      0.168     0.118    2.9367
   02/06/2018 04:18:00      0.168     0.118    2.9702
   02/06/2018 04:19:00      0.168     0.118    3.0036
   02/06/2018 04:20:00      0.168     0.118    3.0371
   02/06/2018 04:21:00      0.168     0.118    3.0628
   02/06/2018 04:22:00      0.168     0.118    3.0886
   02/06/2018 04:23:00      0.168     0.118    3.1143
   02/06/2018 04:24:00      0.168     0.118    3.1401
   02/06/2018 04:25:00      0.168     0.118    3.1659
   02/06/2018 04:26:00      0.168     0.118    3.1855
   02/06/2018 04:27:00      0.168     0.118    3.2051
   02/06/2018 04:28:00      0.168     0.118    3.2247
   02/06/2018 04:29:00      0.168     0.118    3.2443
   02/06/2018 04:30:00      0.188     0.132    3.2640
   02/06/2018 04:31:00      0.188     0.132    3.3004
   02/06/2018 04:32:00      0.188     0.132    3.3369
   02/06/2018 04:33:00      0.188     0.132    3.3733
   02/06/2018 04:34:00      0.188     0.132    3.4098
   02/06/2018 04:35:00      0.188     0.132    3.4463
   02/06/2018 04:36:00      0.188     0.132    3.4739
   02/06/2018 04:37:00      0.188     0.132    3.5015
   02/06/2018 04:38:00      0.188     0.132    3.5292
   02/06/2018 04:39:00      0.188     0.132    3.5568
   02/06/2018 04:40:00      0.188     0.132    3.5844
   02/06/2018 04:41:00      0.188     0.132    3.6051
   02/06/2018 04:42:00      0.188     0.132    3.6259
   02/06/2018 04:43:00      0.188     0.132    3.6466
   02/06/2018 04:44:00      0.188     0.132    3.6673
   02/06/2018 04:45:00      0.224     0.157    3.6881
   02/06/2018 04:46:00      0.224     0.157    3.7442
   02/06/2018 04:47:00      0.224     0.157    3.8004
   02/06/2018 04:48:00      0.224     0.157    3.8565
   02/06/2018 04:49:00      0.224     0.157    3.9127
   02/06/2018 04:50:00      0.224     0.157    3.9688
   02/06/2018 04:51:00      0.224     0.157    4.0109
   02/06/2018 04:52:00      0.224     0.157    4.0530
   02/06/2018 04:53:00      0.224     0.157    4.0951
   02/06/2018 04:54:00      0.224     0.157    4.1372
   02/06/2018 04:55:00      0.224     0.157    4.1793
   02/06/2018 04:56:00      0.224     0.157    4.2104
   02/06/2018 04:57:00      0.224     0.157    4.2415
   02/06/2018 04:58:00      0.224     0.157    4.2726
   02/06/2018 04:59:00      0.224     0.157    4.3037
   02/06/2018 05:00:00      0.268     0.188    4.3348
   02/06/2018 05:01:00      0.268     0.188    4.4103
   02/06/2018 05:02:00      0.268     0.188    4.4858
   02/06/2018 05:03:00      0.268     0.188    4.5613
   02/06/2018 05:04:00      0.268     0.188    4.6367
   02/06/2018 05:05:00      0.268     0.188    4.7122
   02/06/2018 05:06:00      0.268     0.188    4.7677
   02/06/2018 05:07:00      0.268     0.188    4.8232
   02/06/2018 05:08:00      0.268     0.188    4.8787
   02/06/2018 05:09:00      0.268     0.188    4.9342
   02/06/2018 05:10:00      0.268     0.188    4.9898
   02/06/2018 05:11:00      0.268     0.188    5.0299
   02/06/2018 05:12:00      0.268     0.188    5.0700
   02/06/2018 05:13:00      0.268     0.188    5.1102
   02/06/2018 05:14:00      0.268     0.188    5.1503
   02/06/2018 05:15:00      0.340     0.238    5.1905
   02/06/2018 05:16:00      0.340     0.238    5.3113
   02/06/2018 05:17:00      0.340     0.238    5.4320
   02/06/2018 05:18:00      0.340     0.238    5.5528
   02/06/2018 05:19:00      0.340     0.238    5.6736
   02/06/2018 05:20:00      0.340     0.238    5.7944
   02/06/2018 05:21:00      0.340     0.238    5.8814
   02/06/2018 05:22:00      0.340     0.238    5.9685
   02/06/2018 05:23:00      0.340     0.238    6.0555
   02/06/2018 05:24:00      0.340     0.238    6.1425
   02/06/2018 05:25:00      0.340     0.238    6.2296
   02/06/2018 05:26:00      0.340     0.238    6.2908
   02/06/2018 05:27:00      0.340     0.238    6.3521
   02/06/2018 05:28:00      0.340     0.238    6.4134
   02/06/2018 05:29:00      0.340     0.238    6.4746
   02/06/2018 05:30:00      0.712     0.498    6.5359
   02/06/2018 05:31:00      0.712     0.498    7.1169
   02/06/2018 05:32:00      0.712     0.498    7.6978
   02/06/2018 05:33:00      0.712     0.498    8.2788
   02/06/2018 05:34:00      0.712     0.498    8.8597
   02/06/2018 05:35:00      0.712     0.498    9.4406
   02/06/2018 05:36:00      0.712     0.498    9.8588
   02/06/2018 05:37:00      0.712     0.498   10.2770
   02/06/2018 05:38:00      0.712     0.498   10.6951
   02/06/2018 05:39:00      0.712     0.498   11.1133
   02/06/2018 05:40:00      0.712     0.498   11.5315
   02/06/2018 05:41:00      0.712     0.498   11.8072
   02/06/2018 05:42:00      0.712     0.498   12.0830
   02/06/2018 05:43:00      0.712     0.498   12.3588
   02/06/2018 05:44:00      0.712     0.498   12.6346
   02/06/2018 05:45:00      2.704     0.703   12.9104
   02/06/2018 05:46:00      2.704     0.703   17.1811
   02/06/2018 05:47:00      2.704     0.703   21.4518
   02/06/2018 05:48:00      2.704     0.703   25.7224
   02/06/2018 05:49:00      2.704     0.703   29.9931
   02/06/2018 05:50:00      2.704     0.687   34.2638
   02/06/2018 05:51:00      2.704     0.687   37.1907
   02/06/2018 05:52:00      2.704     0.687   40.1177
   02/06/2018 05:53:00      2.704     0.687   43.0447
   02/06/2018 05:54:00      2.704     0.687   45.9717
   02/06/2018 05:55:00      2.704     0.673   48.8987
   02/06/2018 05:56:00      2.704     0.673   50.6481
   02/06/2018 05:57:00      2.704     0.673   52.3974
   02/06/2018 05:58:00      2.704     0.673   54.1468
   02/06/2018 05:59:00      2.704     0.673   55.8962
   02/06/2018 06:00:00      2.664     0.662   57.6456
   02/06/2018 06:01:00      2.664     0.662   58.7106
   02/06/2018 06:02:00      2.664     0.662   59.7756
   02/06/2018 06:03:00      2.664     0.662   60.8406
   02/06/2018 06:04:00      2.664     0.662   61.9055
   02/06/2018 06:05:00      2.664     0.652   62.9705
   02/06/2018 06:06:00      2.664     0.652   63.8805
   02/06/2018 06:07:00      2.664     0.652   64.7905
   02/06/2018 06:08:00      2.664     0.652   65.7005
   02/06/2018 06:09:00      2.664     0.652   66.6105
   02/06/2018 06:10:00      2.664     0.643   67.5204
   02/06/2018 06:11:00      2.664     0.643   68.3950
   02/06/2018 06:12:00      2.664     0.643   69.2695
   02/06/2018 06:13:00      2.664     0.643   70.1440
   02/06/2018 06:14:00      2.664     0.643   71.0185
   02/06/2018 06:15:00      0.556     0.635   71.8931
   02/06/2018 06:16:00      0.556     0.635   66.6289
   02/06/2018 06:17:00      0.556     0.635   61.3647
   02/06/2018 06:18:00      0.556     0.635   56.1006
   02/06/2018 06:19:00      0.556     0.635   50.8364
   02/06/2018 06:20:00      0.556     0.617   45.5723
   02/06/2018 06:21:00      0.556     0.617   43.3187
   02/06/2018 06:22:00      0.556     0.617   41.0651
   02/06/2018 06:23:00      0.556     0.617   38.8115
   02/06/2018 06:24:00      0.556     0.617   36.5579
   02/06/2018 06:25:00      0.556     0.601   34.3043
   02/06/2018 06:26:00      0.556     0.601   33.1151
   02/06/2018 06:27:00      0.556     0.601   31.9259
   02/06/2018 06:28:00      0.556     0.601   30.7367
   02/06/2018 06:29:00      0.556     0.601   29.5475
   02/06/2018 06:30:00      0.352     0.587   28.3582
   02/06/2018 06:31:00      0.352     0.587   27.1964
   02/06/2018 06:32:00      0.352     0.587   26.0346
   02/06/2018 06:33:00      0.352     0.587   24.8727
   02/06/2018 06:34:00      0.352     0.587   23.7109
   02/06/2018 06:35:00      0.352     0.574   22.5490
   02/06/2018 06:36:00      0.352     0.574   21.8071
   02/06/2018 06:37:00      0.352     0.574   21.0652
   02/06/2018 06:38:00      0.352     0.574   20.3233
   02/06/2018 06:39:00      0.352     0.574   19.5813
   02/06/2018 06:40:00      0.352     0.563   18.8394
   02/06/2018 06:41:00      0.352     0.563   18.3234
   02/06/2018 06:42:00      0.352     0.563   17.8073
   02/06/2018 06:43:00      0.352     0.563   17.2912
   02/06/2018 06:44:00      0.352     0.563   16.7752
   02/06/2018 06:45:00      0.276     0.552   16.2591
   02/06/2018 06:46:00      0.276     0.552   15.7387
   02/06/2018 06:47:00      0.276     0.552   15.2182
   02/06/2018 06:48:00      0.276     0.552   14.6978
   02/06/2018 06:49:00      0.276     0.552   14.1773
   02/06/2018 06:50:00      0.276     0.543   13.6569
   02/06/2018 06:51:00      0.276     0.543   13.2736
   02/06/2018 06:52:00      0.276     0.543   12.8904
   02/06/2018 06:53:00      0.276     0.543   12.5072
   02/06/2018 06:54:00      0.276     0.543   12.1239
   02/06/2018 06:55:00      0.276     0.534   11.7407
   02/06/2018 06:56:00      0.276     0.534   11.4478
   02/06/2018 06:57:00      0.276     0.534   11.1549
   02/06/2018 06:58:00      0.276     0.534   10.8620
   02/06/2018 06:59:00      0.276     0.534   10.5691
   02/06/2018 07:00:00      0.232     0.526   10.2762
   02/06/2018 07:01:00      0.232     0.526    9.9761
   02/06/2018 07:02:00      0.232     0.526    9.6760
   02/06/2018 07:03:00      0.232     0.526    9.3758
   02/06/2018 07:04:00      0.232     0.526    9.0757
   02/06/2018 07:05:00      0.232     0.518    8.7756
   02/06/2018 07:06:00      0.232     0.518    8.5465
   02/06/2018 07:07:00      0.232     0.518    8.3175
   02/06/2018 07:08:00      0.232     0.518    8.0884
   02/06/2018 07:09:00      0.232     0.518    7.8594
   02/06/2018 07:10:00      0.232     0.512    7.6303
   02/06/2018 07:11:00      0.232     0.512    7.4541
   02/06/2018 07:12:00      0.232     0.512    7.2779
   02/06/2018 07:13:00      0.232     0.512    7.1016
   02/06/2018 07:14:00      0.232     0.512    6.9254
   02/06/2018 07:15:00      0.200     0.505    6.7492
   02/06/2018 07:16:00      0.200     0.505    6.5693
   02/06/2018 07:17:00      0.200     0.505    6.3894
   02/06/2018 07:18:00      0.200     0.505    6.2095
   02/06/2018 07:19:00      0.200     0.505    6.0296
   02/06/2018 07:20:00      0.200     0.499    5.8497
   02/06/2018 07:21:00      0.200     0.499    5.7205
   02/06/2018 07:22:00      0.200     0.499    5.5912
   02/06/2018 07:23:00      0.200     0.499    5.4620
   02/06/2018 07:24:00      0.200     0.499    5.3327
   02/06/2018 07:25:00      0.200     0.494    5.2035
   02/06/2018 07:26:00      0.200     0.494    5.1180
   02/06/2018 07:27:00      0.200     0.494    5.0324
   02/06/2018 07:28:00      0.200     0.494    4.9469
   02/06/2018 07:29:00      0.200     0.494    4.8613
   02/06/2018 07:30:00      0.176     0.488    4.7758
   02/06/2018 07:31:00      0.176     0.488    4.7074
   02/06/2018 07:32:00      0.176     0.488    4.6391
   02/06/2018 07:33:00      0.176     0.488    4.5708
   02/06/2018 07:34:00      0.176     0.488    4.5024
   02/06/2018 07:35:00      0.176     0.410    4.4341
   02/06/2018 07:36:00      0.176     0.410    4.3949
   02/06/2018 07:37:00      0.176     0.410    4.3557
   02/06/2018 07:38:00      0.176     0.410    4.3164
   02/06/2018 07:39:00      0.176     0.410    4.2772
   02/06/2018 07:40:00      0.176     0.123    4.2380
   02/06/2018 07:41:00      0.176     0.123    4.2100
   02/06/2018 07:42:00      0.176     0.123    4.1821
   02/06/2018 07:43:00      0.176     0.123    4.1541
   02/06/2018 07:44:00      0.176     0.123    4.1261
   02/06/2018 07:45:00      0.156     0.109    4.0982
   02/06/2018 07:46:00      0.156     0.109    4.0553
   02/06/2018 07:47:00      0.156     0.109    4.0125
   02/06/2018 07:48:00      0.156     0.109    3.9696
   02/06/2018 07:49:00      0.156     0.109    3.9268
   02/06/2018 07:50:00      0.156     0.109    3.8839
   02/06/2018 07:51:00      0.156     0.109    3.8531
   02/06/2018 07:52:00      0.156     0.109    3.8223
   02/06/2018 07:53:00      0.156     0.109    3.7915
   02/06/2018 07:54:00      0.156     0.109    3.7607
   02/06/2018 07:55:00      0.156     0.109    3.7299
   02/06/2018 07:56:00      0.156     0.109    3.7076
   02/06/2018 07:57:00      0.156     0.109    3.6852
   02/06/2018 07:58:00      0.156     0.109    3.6629
   02/06/2018 07:59:00      0.156     0.109    3.6405
   02/06/2018 08:00:00      0.136     0.095    3.6181
   02/06/2018 08:01:00      0.136     0.095    3.5800
   02/06/2018 08:02:00      0.136     0.095    3.5419
   02/06/2018 08:03:00      0.136     0.095    3.5037
   02/06/2018 08:04:00      0.136     0.095    3.4656
   02/06/2018 08:05:00      0.136     0.095    3.4275
   02/06/2018 08:06:00      0.136     0.095    3.3996
   02/06/2018 08:07:00      0.136     0.095    3.3718
   02/06/2018 08:08:00      0.136     0.095    3.3440
   02/06/2018 08:09:00      0.136     0.095    3.3161
   02/06/2018 08:10:00      0.136     0.095    3.2883
   02/06/2018 08:11:00      0.136     0.095    3.2678
   02/06/2018 08:12:00      0.136     0.095    3.2473
   02/06/2018 08:13:00      0.136     0.095    3.2268
   02/06/2018 08:14:00      0.136     0.095    3.2063
   02/06/2018 08:15:00      0.132     0.092    3.1858
   02/06/2018 08:16:00      0.132     0.092    3.1664
   02/06/2018 08:17:00      0.132     0.092    3.1470
   02/06/2018 08:18:00      0.132     0.092    3.1276
   02/06/2018 08:19:00      0.132     0.092    3.1082
   02/06/2018 08:20:00      0.132     0.092    3.0889
   02/06/2018 08:21:00      0.132     0.092    3.0744
   02/06/2018 08:22:00      0.132     0.092    3.0600
   02/06/2018 08:23:00      0.132     0.092    3.0455
   02/06/2018 08:24:00      0.132     0.092    3.0311
   02/06/2018 08:25:00      0.132     0.092    3.0166
   02/06/2018 08:26:00      0.132     0.092    3.0058
   02/06/2018 08:27:00      0.132     0.092    2.9950
   02/06/2018 08:28:00      0.132     0.092    2.9842
   02/06/2018 08:29:00      0.132     0.092    2.9734
   02/06/2018 08:30:00      0.124     0.087    2.9626
   02/06/2018 08:31:00      0.124     0.087    2.9463
   02/06/2018 08:32:00      0.124     0.087    2.9299
   02/06/2018 08:33:00      0.124     0.087    2.9136
   02/06/2018 08:34:00      0.124     0.087    2.8973
   02/06/2018 08:35:00      0.124     0.087    2.8810
   02/06/2018 08:36:00      0.124     0.087    2.8687
   02/06/2018 08:37:00      0.124     0.087    2.8565
   02/06/2018 08:38:00      0.124     0.087    2.8442
   02/06/2018 08:39:00      0.124     0.087    2.8320
   02/06/2018 08:40:00      0.124     0.087    2.8197
   02/06/2018 08:41:00      0.124     0.087    2.8105
   02/06/2018 08:42:00      0.124     0.087    2.8012
   02/06/2018 08:43:00      0.124     0.087    2.7919
   02/06/2018 08:44:00      0.124     0.087    2.7827
   02/06/2018 08:45:00      0.116     0.081    2.7734
   02/06/2018 08:46:00      0.116     0.081    2.7584
   02/06/2018 08:47:00      0.116     0.081    2.7434
   02/06/2018 08:48:00      0.116     0.081    2.7284
   02/06/2018 08:49:00      0.116     0.081    2.7134
   02/06/2018 08:50:00      0.116     0.081    2.6984
   02/06/2018 08:51:00      0.116     0.081    2.6870
   02/06/2018 08:52:00      0.116     0.081    2.6757
   02/06/2018 08:53:00      0.116     0.081    2.6643
   02/06/2018 08:54:00      0.116     0.081    2.6529
   02/06/2018 08:55:00      0.116     0.081    2.6416
   02/06/2018 08:56:00      0.116     0.081    2.6329
   02/06/2018 08:57:00      0.116     0.081    2.6243
   02/06/2018 08:58:00      0.116     0.081    2.6157
   02/06/2018 08:59:00      0.116     0.081    2.6070
   02/06/2018 09:00:00      0.112     0.078    2.5984
   02/06/2018 09:01:00      0.112     0.078    2.5879
   02/06/2018 09:02:00      0.112     0.078    2.5774
   02/06/2018 09:03:00      0.112     0.078    2.5669
   02/06/2018 09:04:00      0.112     0.078    2.5564
   02/06/2018 09:05:00      0.112     0.078    2.5459
   02/06/2018 09:06:00      0.112     0.078    2.5378
   02/06/2018 09:07:00      0.112     0.078    2.5298
   02/06/2018 09:08:00      0.112     0.078    2.5218
   02/06/2018 09:09:00      0.112     0.078    2.5138
   02/06/2018 09:10:00      0.112     0.078    2.5058
   02/06/2018 09:11:00      0.112     0.078    2.4996
   02/06/2018 09:12:00      0.112     0.078    2.4935
   02/06/2018 09:13:00      0.112     0.078    2.4873
   02/06/2018 09:14:00      0.112     0.078    2.4812
   02/06/2018 09:15:00      0.104     0.073    2.4750
   02/06/2018 09:16:00      0.104     0.073    2.4626
   02/06/2018 09:17:00      0.104     0.073    2.4502
   02/06/2018 09:18:00      0.104     0.073    2.4378
   02/06/2018 09:19:00      0.104     0.073    2.4254
   02/06/2018 09:20:00      0.104     0.073    2.4130
   02/06/2018 09:21:00      0.104     0.073    2.4034
   02/06/2018 09:22:00      0.104     0.073    2.3939
   02/06/2018 09:23:00      0.104     0.073    2.3844
   02/06/2018 09:24:00      0.104     0.073    2.3749
   02/06/2018 09:25:00      0.104     0.073    2.3654
   02/06/2018 09:26:00      0.104     0.073    2.3581
   02/06/2018 09:27:00      0.104     0.073    2.3507
   02/06/2018 09:28:00      0.104     0.073    2.3434
   02/06/2018 09:29:00      0.104     0.073    2.3361
   02/06/2018 09:30:00      0.096     0.067    2.3288
   02/06/2018 09:31:00      0.096     0.067    2.3156
   02/06/2018 09:32:00      0.096     0.067    2.3024
   02/06/2018 09:33:00      0.096     0.067    2.2893
   02/06/2018 09:34:00      0.096     0.067    2.2761
   02/06/2018 09:35:00      0.096     0.067    2.2629
   02/06/2018 09:36:00      0.096     0.067    2.2527
   02/06/2018 09:37:00      0.096     0.067    2.2426
   02/06/2018 09:38:00      0.096     0.067    2.2324
   02/06/2018 09:39:00      0.096     0.067    2.2223
   02/06/2018 09:40:00      0.096     0.067    2.2121
   02/06/2018 09:41:00      0.096     0.067    2.2043
   02/06/2018 09:42:00      0.096     0.067    2.1964
   02/06/2018 09:43:00      0.096     0.067    2.1886
   02/06/2018 09:44:00      0.096     0.067    2.1807
   02/06/2018 09:45:00      0.092     0.064    2.1729
   02/06/2018 09:46:00      0.092     0.064    2.1631
   02/06/2018 09:47:00      0.092     0.064    2.1533
   02/06/2018 09:48:00      0.092     0.064    2.1435
   02/06/2018 09:49:00      0.092     0.064    2.1338
   02/06/2018 09:50:00      0.092     0.064    2.1240
   02/06/2018 09:51:00      0.092     0.064    2.1164
   02/06/2018 09:52:00      0.092     0.064    2.1088
   02/06/2018 09:53:00      0.092     0.064    2.1012
   02/06/2018 09:54:00      0.092     0.064    2.0936
   02/06/2018 09:55:00      0.092     0.064    2.0860
   02/06/2018 09:56:00      0.092     0.064    2.0801
   02/06/2018 09:57:00      0.092     0.064    2.0742
   02/06/2018 09:58:00      0.092     0.064    2.0683
   02/06/2018 09:59:00      0.092     0.064    2.0623
   02/06/2018 10:00:00      0.084     0.059    2.0564
   02/06/2018 10:01:00      0.084     0.059    2.0446
   02/06/2018 10:02:00      0.084     0.059    2.0328
   02/06/2018 10:03:00      0.084     0.059    2.0209
   02/06/2018 10:04:00      0.084     0.059    2.0091
   02/06/2018 10:05:00      0.084     0.059    1.9973
   02/06/2018 10:06:00      0.084     0.059    1.9880
   02/06/2018 10:07:00      0.084     0.059    1.9788
   02/06/2018 10:08:00      0.084     0.059    1.9696
   02/06/2018 10:09:00      0.084     0.059    1.9604
   02/06/2018 10:10:00      0.084     0.059    1.9511
   02/06/2018 10:11:00      0.084     0.059    1.9439
   02/06/2018 10:12:00      0.084     0.059    1.9367
   02/06/2018 10:13:00      0.084     0.059    1.9295
   02/06/2018 10:14:00      0.084     0.059    1.9222
   02/06/2018 10:15:00      0.084     0.059    1.9150
   02/06/2018 10:16:00      0.084     0.059    1.9093
   02/06/2018 10:17:00      0.084     0.059    1.9037
   02/06/2018 10:18:00      0.084     0.059    1.8980
   02/06/2018 10:19:00      0.084     0.059    1.8923
   02/06/2018 10:20:00      0.084     0.059    1.8866
   02/06/2018 10:21:00      0.084     0.059    1.8822
   02/06/2018 10:22:00      0.084     0.059    1.8777
   02/06/2018 10:23:00      0.084     0.059    1.8732
   02/06/2018 10:24:00      0.084     0.059    1.8687
   02/06/2018 10:25:00      0.084     0.059    1.8643
   02/06/2018 10:26:00      0.084     0.059    1.8607
   02/06/2018 10:27:00      0.084     0.059    1.8572
   02/06/2018 10:28:00      0.084     0.059    1.8537
   02/06/2018 10:29:00      0.084     0.059    1.8501
   02/06/2018 10:30:00      0.080     0.056    1.8466
   02/06/2018 10:31:00      0.080     0.056    1.8403
   02/06/2018 10:32:00      0.080     0.056    1.8341
   02/06/2018 10:33:00      0.080     0.056    1.8278
   02/06/2018 10:34:00      0.080     0.056    1.8215
   02/06/2018 10:35:00      0.080     0.056    1.8153
   02/06/2018 10:36:00      0.080     0.056    1.8103
   02/06/2018 10:37:00      0.080     0.056    1.8053
   02/06/2018 10:38:00      0.080     0.056    1.8004
   02/06/2018 10:39:00      0.080     0.056    1.7954
   02/06/2018 10:40:00      0.080     0.056    1.7905
   02/06/2018 10:41:00      0.080     0.056    1.7866
   02/06/2018 10:42:00      0.080     0.056    1.7826
   02/06/2018 10:43:00      0.080     0.056    1.7787
   02/06/2018 10:44:00      0.080     0.056    1.7748
   02/06/2018 10:45:00      0.076     0.053    1.7709
   02/06/2018 10:46:00      0.076     0.053    1.7643
   02/06/2018 10:47:00      0.076     0.053    1.7578
   02/06/2018 10:48:00      0.076     0.053    1.7512
   02/06/2018 10:49:00      0.076     0.053    1.7447
   02/06/2018 10:50:00      0.076     0.053    1.7382
   02/06/2018 10:51:00      0.076     0.053    1.7330
   02/06/2018 10:52:00      0.076     0.053    1.7278
   02/06/2018 10:53:00      0.076     0.053    1.7226
   02/06/2018 10:54:00      0.076     0.053    1.7174
   02/06/2018 10:55:00      0.076     0.053    1.7122
   02/06/2018 10:56:00      0.076     0.053    1.7081
   02/06/2018 10:57:00      0.076     0.053    1.7040
   02/06/2018 10:58:00      0.076     0.053    1.6999
   02/06/2018 10:59:00      0.076     0.053    1.6958
   02/06/2018 11:00:00      0.076     0.053    1.6916
   02/06/2018 11:01:00      0.076     0.053    1.6884
   02/06/2018 11:02:00      0.076     0.053    1.6851
   02/06/2018 11:03:00      0.076     0.053    1.6818
   02/06/2018 11:04:00      0.076     0.053    1.6785
   02/06/2018 11:05:00      0.076     0.053    1.6752
   02/06/2018 11:06:00      0.076     0.053    1.6726
   02/06/2018 11:07:00      0.076     0.053    1.6700
   02/06/2018 11:08:00      0.076     0.053    1.6674
   02/06/2018 11:09:00      0.076     0.053    1.6647
   02/06/2018 11:10:00      0.076     0.053    1.6621
   02/06/2018 11:11:00      0.076     0.053    1.6600
   02/06/2018 11:12:00      0.076     0.053    1.6579
   02/06/2018 11:13:00      0.076     0.053    1.6558
   02/06/2018 11:14:00      0.076     0.053    1.6538
   02/06/2018 11:15:00      0.072     0.050    1.6517
   02/06/2018 11:16:00      0.072     0.050    1.6466
   02/06/2018 11:17:00      0.072     0.050    1.6416
   02/06/2018 11:18:00      0.072     0.050    1.6366
   02/06/2018 11:19:00      0.072     0.050    1.6316
   02/06/2018 11:20:00      0.072     0.050    1.6266
   02/06/2018 11:21:00      0.072     0.050    1.6226
   02/06/2018 11:22:00      0.072     0.050    1.6185
   02/06/2018 11:23:00      0.072     0.050    1.6145
   02/06/2018 11:24:00      0.072     0.050    1.6105
   02/06/2018 11:25:00      0.072     0.050    1.6065
   02/06/2018 11:26:00      0.072     0.050    1.6033
   02/06/2018 11:27:00      0.072     0.050    1.6001
   02/06/2018 11:28:00      0.072     0.050    1.5969
   02/06/2018 11:29:00      0.072     0.050    1.5937
   02/06/2018 11:30:00      0.072     0.050    1.5905
   02/06/2018 11:31:00      0.072     0.050    1.5879
   02/06/2018 11:32:00      0.072     0.050    1.5854
   02/06/2018 11:33:00      0.072     0.050    1.5828
   02/06/2018 11:34:00      0.072     0.050    1.5802
   02/06/2018 11:35:00      0.072     0.050    1.5776
   02/06/2018 11:36:00      0.072     0.050    1.5756
   02/06/2018 11:37:00      0.072     0.050    1.5735
   02/06/2018 11:38:00      0.072     0.050    1.5715
   02/06/2018 11:39:00      0.072     0.050    1.5694
   02/06/2018 11:40:00      0.072     0.050    1.5673
   02/06/2018 11:41:00      0.072     0.050    1.5657
   02/06/2018 11:42:00      0.072     0.050    1.5640
   02/06/2018 11:43:00      0.072     0.050    1.5624
   02/06/2018 11:44:00      0.072     0.050    1.5607
   02/06/2018 11:45:00      0.068     0.048    1.5590
   02/06/2018 11:46:00      0.068     0.048    1.5544
   02/06/2018 11:47:00      0.068     0.048    1.5498
   02/06/2018 11:48:00      0.068     0.048    1.5452
   02/06/2018 11:49:00      0.068     0.048    1.5406
   02/06/2018 11:50:00      0.068     0.048    1.5360
   02/06/2018 11:51:00      0.068     0.048    1.5323
   02/06/2018 11:52:00      0.068     0.048    1.5286
   02/06/2018 11:53:00      0.068     0.048    1.5249
   02/06/2018 11:54:00      0.068     0.048    1.5212
   02/06/2018 11:55:00      0.068     0.048    1.5175
   02/06/2018 11:56:00      0.068     0.048    1.5145
   02/06/2018 11:57:00      0.068     0.048    1.5115
   02/06/2018 11:58:00      0.068     0.048    1.5086
   02/06/2018 11:59:00      0.068     0.048    1.5056
   02/06/2018 12:00:00      0.040     0.028    1.5026
   02/06/2018 12:01:00      0.040     0.028    1.4779
   02/06/2018 12:02:00      0.040     0.028    1.4532
   02/06/2018 12:03:00      0.040     0.028    1.4284
   02/06/2018 12:04:00      0.040     0.028    1.4037
   02/06/2018 12:05:00      0.040     0.028    1.3790
   02/06/2018 12:06:00      0.040     0.028    1.3595
   02/06/2018 12:07:00      0.040     0.028    1.3400
   02/06/2018 12:08:00      0.040     0.028    1.3205
   02/06/2018 12:09:00      0.040     0.028    1.3010
   02/06/2018 12:10:00      0.040     0.028    1.2815
   02/06/2018 12:11:00      0.040     0.028    1.2660
   02/06/2018 12:12:00      0.040     0.028    1.2505
   02/06/2018 12:13:00      0.040     0.028    1.2349
   02/06/2018 12:14:00      0.040     0.028    1.2194
   02/06/2018 12:15:00      0.000     0.000    1.2038
   02/06/2018 12:16:00      0.000     0.000    1.1627
   02/06/2018 12:17:00      0.000     0.000    1.1216
   02/06/2018 12:18:00      0.000     0.000    1.0804
   02/06/2018 12:19:00      0.000     0.000    1.0393
   02/06/2018 12:20:00      0.000     0.000    0.9981
   02/06/2018 12:21:00      0.000     0.000    0.9662
   02/06/2018 12:22:00      0.000     0.000    0.9343
   02/06/2018 12:23:00      0.000     0.000    0.9023
   02/06/2018 12:24:00      0.000     0.000    0.8704
   02/06/2018 12:25:00      0.000     0.000    0.8385
   02/06/2018 12:26:00      0.000     0.000    0.8132
   02/06/2018 12:27:00      0.000     0.000    0.7880
   02/06/2018 12:28:00      0.000     0.000    0.7628
   02/06/2018 12:29:00      0.000     0.000    0.7376
   02/06/2018 12:30:00      0.000     0.000    0.7124
   02/06/2018 12:31:00      0.000     0.000    0.6922
   02/06/2018 12:32:00      0.000     0.000    0.6720
   02/06/2018 12:33:00      0.000     0.000    0.6517
   02/06/2018 12:34:00      0.000     0.000    0.6315
   02/06/2018 12:35:00      0.000     0.000    0.6113
   02/06/2018 12:36:00      0.000     0.000    0.5949
   02/06/2018 12:37:00      0.000     0.000    0.5785
   02/06/2018 12:38:00      0.000     0.000    0.5621
   02/06/2018 12:39:00      0.000     0.000    0.5457
   02/06/2018 12:40:00      0.000     0.000    0.5293
   02/06/2018 12:41:00      0.000     0.000    0.5158
   02/06/2018 12:42:00      0.000     0.000    0.5023
   02/06/2018 12:43:00      0.000     0.000    0.4888
   02/06/2018 12:44:00      0.000     0.000    0.4753
   02/06/2018 12:45:00      0.000     0.000    0.4618
   02/06/2018 12:46:00      0.000     0.000    0.4506
   02/06/2018 12:47:00      0.000     0.000    0.4394
   02/06/2018 12:48:00      0.000     0.000    0.4282
   02/06/2018 12:49:00      0.000     0.000    0.4170
   02/06/2018 12:50:00      0.000     0.000    0.4058
   02/06/2018 12:51:00      0.000     0.000    0.3964
   02/06/2018 12:52:00      0.000     0.000    0.3871
   02/06/2018 12:53:00      0.000     0.000    0.3777
   02/06/2018 12:54:00      0.000     0.000    0.3683
   02/06/2018 12:55:00      0.000     0.000    0.3589
   02/06/2018 12:56:00      0.000     0.000    0.3510
   02/06/2018 12:57:00      0.000     0.000    0.3430
   02/06/2018 12:58:00      0.000     0.000    0.3351
   02/06/2018 12:59:00      0.000     0.000    0.3272
   02/06/2018 13:00:00      0.000     0.000    0.3192
   02/06/2018 13:01:00      0.000     0.000    0.3125
   02/06/2018 13:02:00      0.000     0.000    0.3057
   02/06/2018 13:03:00      0.000     0.000    0.2990
   02/06/2018 13:04:00      0.000     0.000    0.2922
   02/06/2018 13:05:00      0.000     0.000    0.2854
   02/06/2018 13:06:00      0.000     0.000    0.2796
   02/06/2018 13:07:00      0.000     0.000    0.2738
   02/06/2018 13:08:00      0.000     0.000    0.2680
   02/06/2018 13:09:00      0.000     0.000    0.2622
   02/06/2018 13:10:00      0.000     0.000    0.2564
   02/06/2018 13:11:00      0.000     0.000    0.2514
   02/06/2018 13:12:00      0.000     0.000    0.2464
   02/06/2018 13:13:00      0.000     0.000    0.2414
   02/06/2018 13:14:00      0.000     0.000    0.2364
   02/06/2018 13:15:00      0.000     0.000    0.2314
   02/06/2018 13:16:00      0.000     0.000    0.2271
   02/06/2018 13:17:00      0.000     0.000    0.2227
   02/06/2018 13:18:00      0.000     0.000    0.2184
   02/06/2018 13:19:00      0.000     0.000    0.2140
   02/06/2018 13:20:00      0.000     0.000    0.2097
   02/06/2018 13:21:00      0.000     0.000    0.2059
   02/06/2018 13:22:00      0.000     0.000    0.2021
   02/06/2018 13:23:00      0.000     0.000    0.1983
   02/06/2018 13:24:00      0.000     0.000    0.1945
   02/06/2018 13:25:00      0.000     0.000    0.1907
   02/06/2018 13:26:00      0.000     0.000    0.1874
   02/06/2018 13:27:00      0.000     0.000    0.1840
   02/06/2018 13:28:00      0.000     0.000    0.1807
   02/06/2018 13:29:00      0.000     0.000    0.1774
   02/06/2018 13:30:00      0.000     0.000    0.1740
   02/06/2018 13:31:00      0.000     0.000    0.1711
   02/06/2018 13:32:00      0.000     0.000    0.1682
   02/06/2018 13:33:00      0.000     0.000    0.1652
   02/06/2018 13:34:00      0.000     0.000    0.1623
   02/06/2018 13:35:00      0.000     0.000    0.1593
   02/06/2018 13:36:00      0.000     0.000    0.1567
   02/06/2018 13:37:00      0.000     0.000    0.1541
   02/06/2018 13:38:00      0.000     0.000    0.1515
   02/06/2018 13:39:00      0.000     0.000    0.1489
   02/06/2018 13:40:00      0.000     0.000    0.1463
   02/06/2018 13:41:00      0.000     0.000    0.1440
   02/06/2018 13:42:00      0.000     0.000    0.1417
   02/06/2018 13:43:00      0.000     0.000    0.1394
   02/06/2018 13:44:00      0.000     0.000    0.1371
   02/06/2018 13:45:00      0.000     0.000    0.1348
   02/06/2018 13:46:00      0.000     0.000    0.1327
   02/06/2018 13:47:00      0.000     0.000    0.1306
   02/06/2018 13:48:00      0.000     0.000    0.1286
   02/06/2018 13:49:00      0.000     0.000    0.1265
   02/06/2018 13:50:00      0.000     0.000    0.1244
   02/06/2018 13:51:00      0.000     0.000    0.1226
   02/06/2018 13:52:00      0.000     0.000    0.1207
   02/06/2018 13:53:00      0.000     0.000    0.1189
   02/06/2018 13:54:00      0.000     0.000    0.1170
   02/06/2018 13:55:00      0.000     0.000    0.1152
   02/06/2018 13:56:00      0.000     0.000    0.1135
   02/06/2018 13:57:00      0.000     0.000    0.1118
   02/06/2018 13:58:00      0.000     0.000    0.1102
   02/06/2018 13:59:00      0.000     0.000    0.1085
   02/06/2018 14:00:00      0.000     0.000    0.1069
   02/06/2018 14:01:00      0.000     0.000    0.1054
   02/06/2018 14:02:00      0.000     0.000    0.1039
   02/06/2018 14:03:00      0.000     0.000    0.1024
   02/06/2018 14:04:00      0.000     0.000    0.1009
   02/06/2018 14:05:00      0.000     0.000    0.0994
   02/06/2018 14:06:00      0.000     0.000    0.0980
   02/06/2018 14:07:00      0.000     0.000    0.0966
   02/06/2018 14:08:00      0.000     0.000    0.0953
   02/06/2018 14:09:00      0.000     0.000    0.0939
   02/06/2018 14:10:00      0.000     0.000    0.0926
   02/06/2018 14:11:00      0.000     0.000    0.0913
   02/06/2018 14:12:00      0.000     0.000    0.0901
   02/06/2018 14:13:00      0.000     0.000    0.0889
   02/06/2018 14:14:00      0.000     0.000    0.0876
   02/06/2018 14:15:00      0.000     0.000    0.0864
   02/06/2018 14:16:00      0.000     0.000    0.0853
   02/06/2018 14:17:00      0.000     0.000    0.0842
   02/06/2018 14:18:00      0.000     0.000    0.0831
   02/06/2018 14:19:00      0.000     0.000    0.0819
   02/06/2018 14:20:00      0.000     0.000    0.0808
   02/06/2018 14:21:00      0.000     0.000    0.0798
   02/06/2018 14:22:00      0.000     0.000    0.0788
   02/06/2018 14:23:00      0.000     0.000    0.0778
   02/06/2018 14:24:00      0.000     0.000    0.0767
   02/06/2018 14:25:00      0.000     0.000    0.0757
   02/06/2018 14:26:00      0.000     0.000    0.0748
   02/06/2018 14:27:00      0.000     0.000    0.0739
   02/06/2018 14:28:00      0.000     0.000    0.0729
   02/06/2018 14:29:00      0.000     0.000    0.0720
   02/06/2018 14:30:00      0.000     0.000    0.0711
   02/06/2018 14:31:00      0.000     0.000    0.0000
   02/06/2018 14:32:00      0.000     0.000    0.0000
   02/06/2018 14:33:00      0.000     0.000    0.0000
   02/06/2018 14:34:00      0.000     0.000    0.0000
   02/06/2018 14:35:00      0.000     0.000    0.0000
   02/06/2018 14:36:00      0.000     0.000    0.0000
   02/06/2018 14:37:00      0.000     0.000    0.0000
   02/06/2018 14:38:00      0.000     0.000    0.0000
   02/06/2018 14:39:00      0.000     0.000    0.0000
   02/06/2018 14:40:00      0.000     0.000    0.0000
   02/06/2018 14:41:00      0.000     0.000    0.0000
   02/06/2018 14:42:00      0.000     0.000    0.0000
   02/06/2018 14:43:00      0.000     0.000    0.0000
   02/06/2018 14:44:00      0.000     0.000    0.0000
   02/06/2018 14:45:00      0.000     0.000    0.0000
   02/06/2018 14:46:00      0.000     0.000    0.0000
   02/06/2018 14:47:00      0.000     0.000    0.0000
   02/06/2018 14:48:00      0.000     0.000    0.0000
   02/06/2018 14:49:00      0.000     0.000    0.0000
   02/06/2018 14:50:00      0.000     0.000    0.0000
   02/06/2018 14:51:00      0.000     0.000    0.0000
   02/06/2018 14:52:00      0.000     0.000    0.0000
   02/06/2018 14:53:00      0.000     0.000    0.0000
   02/06/2018 14:54:00      0.000     0.000    0.0000
   02/06/2018 14:55:00      0.000     0.000    0.0000
   02/06/2018 14:56:00      0.000     0.000    0.0000
   02/06/2018 14:57:00      0.000     0.000    0.0000
   02/06/2018 14:58:00      0.000     0.000    0.0000
   02/06/2018 14:59:00      0.000     0.000    0.0000
   02/06/2018 15:00:00      0.000     0.000    0.0000
   02/06/2018 15:01:00      0.000     0.000    0.0000
   02/06/2018 15:02:00      0.000     0.000    0.0000
   02/06/2018 15:03:00      0.000     0.000    0.0000
   02/06/2018 15:04:00      0.000     0.000    0.0000
   02/06/2018 15:05:00      0.000     0.000    0.0000
   02/06/2018 15:06:00      0.000     0.000    0.0000
   02/06/2018 15:07:00      0.000     0.000    0.0000
   02/06/2018 15:08:00      0.000     0.000    0.0000
   02/06/2018 15:09:00      0.000     0.000    0.0000
   02/06/2018 15:10:00      0.000     0.000    0.0000
   02/06/2018 15:11:00      0.000     0.000    0.0000
   02/06/2018 15:12:00      0.000     0.000    0.0000
   02/06/2018 15:13:00      0.000     0.000    0.0000
   02/06/2018 15:14:00      0.000     0.000    0.0000
   02/06/2018 15:15:00      0.000     0.000    0.0000
   02/06/2018 15:16:00      0.000     0.000    0.0000
   02/06/2018 15:17:00      0.000     0.000    0.0000
   02/06/2018 15:18:00      0.000     0.000    0.0000
   02/06/2018 15:19:00      0.000     0.000    0.0000
   02/06/2018 15:20:00      0.000     0.000    0.0000
   02/06/2018 15:21:00      0.000     0.000    0.0000
   02/06/2018 15:22:00      0.000     0.000    0.0000
   02/06/2018 15:23:00      0.000     0.000    0.0000
   02/06/2018 15:24:00      0.000     0.000    0.0000
   02/06/2018 15:25:00      0.000     0.000    0.0000
   02/06/2018 15:26:00      0.000     0.000    0.0000
   02/06/2018 15:27:00      0.000     0.000    0.0000
   02/06/2018 15:28:00      0.000     0.000    0.0000
   02/06/2018 15:29:00      0.000     0.000    0.0000
   02/06/2018 15:30:00      0.000     0.000    0.0000
   02/06/2018 15:31:00      0.000     0.000    0.0000
   02/06/2018 15:32:00      0.000     0.000    0.0000
   02/06/2018 15:33:00      0.000     0.000    0.0000
   02/06/2018 15:34:00      0.000     0.000    0.0000
   02/06/2018 15:35:00      0.000     0.000    0.0000
   02/06/2018 15:36:00      0.000     0.000    0.0000
   02/06/2018 15:37:00      0.000     0.000    0.0000
   02/06/2018 15:38:00      0.000     0.000    0.0000
   02/06/2018 15:39:00      0.000     0.000    0.0000
   02/06/2018 15:40:00      0.000     0.000    0.0000
   02/06/2018 15:41:00      0.000     0.000    0.0000
   02/06/2018 15:42:00      0.000     0.000    0.0000
   02/06/2018 15:43:00      0.000     0.000    0.0000
   02/06/2018 15:44:00      0.000     0.000    0.0000
   02/06/2018 15:45:00      0.000     0.000    0.0000
   02/06/2018 15:46:00      0.000     0.000    0.0000
   02/06/2018 15:47:00      0.000     0.000    0.0000
   02/06/2018 15:48:00      0.000     0.000    0.0000
   02/06/2018 15:49:00      0.000     0.000    0.0000
   02/06/2018 15:50:00      0.000     0.000    0.0000
   02/06/2018 15:51:00      0.000     0.000    0.0000
   02/06/2018 15:52:00      0.000     0.000    0.0000
   02/06/2018 15:53:00      0.000     0.000    0.0000
   02/06/2018 15:54:00      0.000     0.000    0.0000
   02/06/2018 15:55:00      0.000     0.000    0.0000
   02/06/2018 15:56:00      0.000     0.000    0.0000
   02/06/2018 15:57:00      0.000     0.000    0.0000
   02/06/2018 15:58:00      0.000     0.000    0.0000
   02/06/2018 15:59:00      0.000     0.000    0.0000
   02/06/2018 16:00:00      0.000     0.000    0.0000
   02/06/2018 16:01:00      0.000     0.000    0.0000
   02/06/2018 16:02:00      0.000     0.000    0.0000
   02/06/2018 16:03:00      0.000     0.000    0.0000
   02/06/2018 16:04:00      0.000     0.000    0.0000
   02/06/2018 16:05:00      0.000     0.000    0.0000
   02/06/2018 16:06:00      0.000     0.000    0.0000
   02/06/2018 16:07:00      0.000     0.000    0.0000
   02/06/2018 16:08:00      0.000     0.000    0.0000
   02/06/2018 16:09:00      0.000     0.000    0.0000
   02/06/2018 16:10:00      0.000     0.000    0.0000
   02/06/2018 16:11:00      0.000     0.000    0.0000
   02/06/2018 16:12:00      0.000     0.000    0.0000
   02/06/2018 16:13:00      0.000     0.000    0.0000
   02/06/2018 16:14:00      0.000     0.000    0.0000
   02/06/2018 16:15:00      0.000     0.000    0.0000
   02/06/2018 16:16:00      0.000     0.000    0.0000
   02/06/2018 16:17:00      0.000     0.000    0.0000
   02/06/2018 16:18:00      0.000     0.000    0.0000
   02/06/2018 16:19:00      0.000     0.000    0.0000
   02/06/2018 16:20:00      0.000     0.000    0.0000
   02/06/2018 16:21:00      0.000     0.000    0.0000
   02/06/2018 16:22:00      0.000     0.000    0.0000
   02/06/2018 16:23:00      0.000     0.000    0.0000
   02/06/2018 16:24:00      0.000     0.000    0.0000
   02/06/2018 16:25:00      0.000     0.000    0.0000
   02/06/2018 16:26:00      0.000     0.000    0.0000
   02/06/2018 16:27:00      0.000     0.000    0.0000
   02/06/2018 16:28:00      0.000     0.000    0.0000
   02/06/2018 16:29:00      0.000     0.000    0.0000
   02/06/2018 16:30:00      0.000     0.000    0.0000
   02/06/2018 16:31:00      0.000     0.000    0.0000
   02/06/2018 16:32:00      0.000     0.000    0.0000
   02/06/2018 16:33:00      0.000     0.000    0.0000
   02/06/2018 16:34:00      0.000     0.000    0.0000
   02/06/2018 16:35:00      0.000     0.000    0.0000
   02/06/2018 16:36:00      0.000     0.000    0.0000
   02/06/2018 16:37:00      0.000     0.000    0.0000
   02/06/2018 16:38:00      0.000     0.000    0.0000
   02/06/2018 16:39:00      0.000     0.000    0.0000
   02/06/2018 16:40:00      0.000     0.000    0.0000
   02/06/2018 16:41:00      0.000     0.000    0.0000
   02/06/2018 16:42:00      0.000     0.000    0.0000
   02/06/2018 16:43:00      0.000     0.000    0.0000
   02/06/2018 16:44:00      0.000     0.000    0.0000
   02/06/2018 16:45:00      0.000     0.000    0.0000
   02/06/2018 16:46:00      0.000     0.000    0.0000
   02/06/2018 16:47:00      0.000     0.000    0.0000
   02/06/2018 16:48:00      0.000     0.000    0.0000
   02/06/2018 16:49:00      0.000     0.000    0.0000
   02/06/2018 16:50:00      0.000     0.000    0.0000
   02/06/2018 16:51:00      0.000     0.000    0.0000
   02/06/2018 16:52:00      0.000     0.000    0.0000
   02/06/2018 16:53:00      0.000     0.000    0.0000
   02/06/2018 16:54:00      0.000     0.000    0.0000
   02/06/2018 16:55:00      0.000     0.000    0.0000
   02/06/2018 16:56:00      0.000     0.000    0.0000
   02/06/2018 16:57:00      0.000     0.000    0.0000
   02/06/2018 16:58:00      0.000     0.000    0.0000
   02/06/2018 16:59:00      0.000     0.000    0.0000
   02/06/2018 17:00:00      0.000     0.000    0.0000
   02/06/2018 17:01:00      0.000     0.000    0.0000
   02/06/2018 17:02:00      0.000     0.000    0.0000
   02/06/2018 17:03:00      0.000     0.000    0.0000
   02/06/2018 17:04:00      0.000     0.000    0.0000
   02/06/2018 17:05:00      0.000     0.000    0.0000
   02/06/2018 17:06:00      0.000     0.000    0.0000
   02/06/2018 17:07:00      0.000     0.000    0.0000
   02/06/2018 17:08:00      0.000     0.000    0.0000
   02/06/2018 17:09:00      0.000     0.000    0.0000
   02/06/2018 17:10:00      0.000     0.000    0.0000
   02/06/2018 17:11:00      0.000     0.000    0.0000
   02/06/2018 17:12:00      0.000     0.000    0.0000
   02/06/2018 17:13:00      0.000     0.000    0.0000
   02/06/2018 17:14:00      0.000     0.000    0.0000
   02/06/2018 17:15:00      0.000     0.000    0.0000
   02/06/2018 17:16:00      0.000     0.000    0.0000
   02/06/2018 17:17:00      0.000     0.000    0.0000
   02/06/2018 17:18:00      0.000     0.000    0.0000
   02/06/2018 17:19:00      0.000     0.000    0.0000
   02/06/2018 17:20:00      0.000     0.000    0.0000
   02/06/2018 17:21:00      0.000     0.000    0.0000
   02/06/2018 17:22:00      0.000     0.000    0.0000
   02/06/2018 17:23:00      0.000     0.000    0.0000
   02/06/2018 17:24:00      0.000     0.000    0.0000
   02/06/2018 17:25:00      0.000     0.000    0.0000
   02/06/2018 17:26:00      0.000     0.000    0.0000
   02/06/2018 17:27:00      0.000     0.000    0.0000
   02/06/2018 17:28:00      0.000     0.000    0.0000
   02/06/2018 17:29:00      0.000     0.000    0.0000
   02/06/2018 17:30:00      0.000     0.000    0.0000
   02/06/2018 17:31:00      0.000     0.000    0.0000
   02/06/2018 17:32:00      0.000     0.000    0.0000
   02/06/2018 17:33:00      0.000     0.000    0.0000
   02/06/2018 17:34:00      0.000     0.000    0.0000
   02/06/2018 17:35:00      0.000     0.000    0.0000
   02/06/2018 17:36:00      0.000     0.000    0.0000
   02/06/2018 17:37:00      0.000     0.000    0.0000
   02/06/2018 17:38:00      0.000     0.000    0.0000
   02/06/2018 17:39:00      0.000     0.000    0.0000
   02/06/2018 17:40:00      0.000     0.000    0.0000
   02/06/2018 17:41:00      0.000     0.000    0.0000
   02/06/2018 17:42:00      0.000     0.000    0.0000
   02/06/2018 17:43:00      0.000     0.000    0.0000
   02/06/2018 17:44:00      0.000     0.000    0.0000
   02/06/2018 17:45:00      0.000     0.000    0.0000
   02/06/2018 17:46:00      0.000     0.000    0.0000
   02/06/2018 17:47:00      0.000     0.000    0.0000
   02/06/2018 17:48:00      0.000     0.000    0.0000
   02/06/2018 17:49:00      0.000     0.000    0.0000
   02/06/2018 17:50:00      0.000     0.000    0.0000
   02/06/2018 17:51:00      0.000     0.000    0.0000
   02/06/2018 17:52:00      0.000     0.000    0.0000
   02/06/2018 17:53:00      0.000     0.000    0.0000
   02/06/2018 17:54:00      0.000     0.000    0.0000
   02/06/2018 17:55:00      0.000     0.000    0.0000
   02/06/2018 17:56:00      0.000     0.000    0.0000
   02/06/2018 17:57:00      0.000     0.000    0.0000
   02/06/2018 17:58:00      0.000     0.000    0.0000
   02/06/2018 17:59:00      0.000     0.000    0.0000
   02/06/2018 18:00:00      0.000     0.000    0.0000
   02/06/2018 18:01:00      0.000     0.000    0.0000
   02/06/2018 18:02:00      0.000     0.000    0.0000
   02/06/2018 18:03:00      0.000     0.000    0.0000
   02/06/2018 18:04:00      0.000     0.000    0.0000
   02/06/2018 18:05:00      0.000     0.000    0.0000
   02/06/2018 18:06:00      0.000     0.000    0.0000
   02/06/2018 18:07:00      0.000     0.000    0.0000
   02/06/2018 18:08:00      0.000     0.000    0.0000
   02/06/2018 18:09:00      0.000     0.000    0.0000
   02/06/2018 18:10:00      0.000     0.000    0.0000
   02/06/2018 18:11:00      0.000     0.000    0.0000
   02/06/2018 18:12:00      0.000     0.000    0.0000
   02/06/2018 18:13:00      0.000     0.000    0.0000
   02/06/2018 18:14:00      0.000     0.000    0.0000
   02/06/2018 18:15:00      0.000     0.000    0.0000
   02/06/2018 18:16:00      0.000     0.000    0.0000
   02/06/2018 18:17:00      0.000     0.000    0.0000
   02/06/2018 18:18:00      0.000     0.000    0.0000
   02/06/2018 18:19:00      0.000     0.000    0.0000
   02/06/2018 18:20:00      0.000     0.000    0.0000
   02/06/2018 18:21:00      0.000     0.000    0.0000
   02/06/2018 18:22:00      0.000     0.000    0.0000
   02/06/2018 18:23:00      0.000     0.000    0.0000
   02/06/2018 18:24:00      0.000     0.000    0.0000
   02/06/2018 18:25:00      0.000     0.000    0.0000
   02/06/2018 18:26:00      0.000     0.000    0.0000
   02/06/2018 18:27:00      0.000     0.000    0.0000
   02/06/2018 18:28:00      0.000     0.000    0.0000
   02/06/2018 18:29:00      0.000     0.000    0.0000
   02/06/2018 18:30:00      0.000     0.000    0.0000
   02/06/2018 18:31:00      0.000     0.000    0.0000
   02/06/2018 18:32:00      0.000     0.000    0.0000
   02/06/2018 18:33:00      0.000     0.000    0.0000
   02/06/2018 18:34:00      0.000     0.000    0.0000
   02/06/2018 18:35:00      0.000     0.000    0.0000
   02/06/2018 18:36:00      0.000     0.000    0.0000
   02/06/2018 18:37:00      0.000     0.000    0.0000
   02/06/2018 18:38:00      0.000     0.000    0.0000
   02/06/2018 18:39:00      0.000     0.000    0.0000
   02/06/2018 18:40:00      0.000     0.000    0.0000
   02/06/2018 18:41:00      0.000     0.000    0.0000
   02/06/2018 18:42:00      0.000     0.000    0.0000
   02/06/2018 18:43:00      0.000     0.000    0.0000
   02/06/2018 18:44:00      0.000     0.000    0.0000
   02/06/2018 18:45:00      0.000     0.000    0.0000
   02/06/2018 18:46:00      0.000     0.000    0.0000
   02/06/2018 18:47:00      0.000     0.000    0.0000
   02/06/2018 18:48:00      0.000     0.000    0.0000
   02/06/2018 18:49:00      0.000     0.000    0.0000
   02/06/2018 18:50:00      0.000     0.000    0.0000
   02/06/2018 18:51:00      0.000     0.000    0.0000
   02/06/2018 18:52:00      0.000     0.000    0.0000
   02/06/2018 18:53:00      0.000     0.000    0.0000
   02/06/2018 18:54:00      0.000     0.000    0.0000
   02/06/2018 18:55:00      0.000     0.000    0.0000
   02/06/2018 18:56:00      0.000     0.000    0.0000
   02/06/2018 18:57:00      0.000     0.000    0.0000
   02/06/2018 18:58:00      0.000     0.000    0.0000
   02/06/2018 18:59:00      0.000     0.000    0.0000
   02/06/2018 19:00:00      0.000     0.000    0.0000
   02/06/2018 19:01:00      0.000     0.000    0.0000
   02/06/2018 19:02:00      0.000     0.000    0.0000
   02/06/2018 19:03:00      0.000     0.000    0.0000
   02/06/2018 19:04:00      0.000     0.000    0.0000
   02/06/2018 19:05:00      0.000     0.000    0.0000
   02/06/2018 19:06:00      0.000     0.000    0.0000
   02/06/2018 19:07:00      0.000     0.000    0.0000
   02/06/2018 19:08:00      0.000     0.000    0.0000
   02/06/2018 19:09:00      0.000     0.000    0.0000
   02/06/2018 19:10:00      0.000     0.000    0.0000
   02/06/2018 19:11:00      0.000     0.000    0.0000
   02/06/2018 19:12:00      0.000     0.000    0.0000
   02/06/2018 19:13:00      0.000     0.000    0.0000
   02/06/2018 19:14:00      0.000     0.000    0.0000
   02/06/2018 19:15:00      0.000     0.000    0.0000
   02/06/2018 19:16:00      0.000     0.000    0.0000
   02/06/2018 19:17:00      0.000     0.000    0.0000
   02/06/2018 19:18:00      0.000     0.000    0.0000
   02/06/2018 19:19:00      0.000     0.000    0.0000
   02/06/2018 19:20:00      0.000     0.000    0.0000
   02/06/2018 19:21:00      0.000     0.000    0.0000
   02/06/2018 19:22:00      0.000     0.000    0.0000
   02/06/2018 19:23:00      0.000     0.000    0.0000
   02/06/2018 19:24:00      0.000     0.000    0.0000
   02/06/2018 19:25:00      0.000     0.000    0.0000
   02/06/2018 19:26:00      0.000     0.000    0.0000
[...]
   02/06/2018 21:10:00      1.870     0.000     0.758     0.758
   02/06/2018 21:11:00      1.870     0.000     0.758     0.758
   02/06/2018 21:12:00      1.869     0.000     0.758     0.758
   02/06/2018 21:13:00      1.869     0.000     0.758     0.758
   02/06/2018 21:14:00      1.868     0.000     0.758     0.758
   02/06/2018 21:15:00      1.867     0.000     0.758     0.758
   02/06/2018 21:16:00      1.159     0.000     0.795     0.795
   02/06/2018 21:17:00      1.159     0.000     0.795     0.795
   02/06/2018 21:18:00      1.160     0.000     0.795     0.795
   02/06/2018 21:19:00      1.160     0.000     0.795     0.795
   02/06/2018 21:20:00      1.161     0.000     0.795     0.795
   02/06/2018 21:21:00      1.161     0.000     0.795     0.795
   02/06/2018 21:22:00      1.161     0.000     0.795     0.795
   02/06/2018 21:23:00      1.162     0.000     0.795     0.795
   02/06/2018 21:24:00      1.633     0.000     0.795     0.795
   02/06/2018 21:25:00      1.648     0.000     0.795     0.795
   02/06/2018 21:26:00      1.648     0.000     0.795     0.795
   02/06/2018 21:27:00      1.163     0.000     0.795     0.795
   02/06/2018 21:28:00      1.648     0.000     0.795     0.795
   02/06/2018 21:29:00      1.633     0.000     0.795     0.795
   02/06/2018 21:30:00      1.633     0.000     0.795     0.795
   02/06/2018 21:31:00      1.138     0.000     0.804     0.804
   02/06/2018 21:32:00      1.139     0.000     0.804     0.804
   02/06/2018 21:33:00      1.139     0.000     0.804     0.804
   02/06/2018 21:34:00      1.140     0.000     0.804     0.804
   02/06/2018 21:35:00      1.141     0.000     0.804     0.804
   02/06/2018 21:36:00      1.142     0.000     0.804     0.804
   02/06/2018 21:37:00      1.143     0.000     0.804     0.804
   02/06/2018 21:38:00      1.143     0.000     0.804     0.804
   02/06/2018 21:39:00      1.144     0.000     0.804     0.804
   02/06/2018 21:40:00      1.145     0.000     0.804     0.804
   02/06/2018 21:41:00      1.146     0.000     0.804     0.804
   02/06/2018 21:42:00      1.147     0.000     0.804     0.804
   02/06/2018 21:43:00      1.147     0.000     0.804     0.804
   02/06/2018 21:44:00      1.148     0.000     0.804     0.804
   02/06/2018 21:45:00      1.149     0.000     0.804     0.804
   02/06/2018 21:46:00      1.840     0.000     0.753     0.753
   02/06/2018 21:47:00      1.840     0.000     0.753     0.753
   02/06/2018 21:48:00      1.839     0.000     0.753     0.753
   02/06/2018 21:49:00      1.839     0.000     0.753     0.753
   02/06/2018 21:50:00      1.838     0.000     0.753     0.753
   02/06/2018 21:51:00      1.838     0.000     0.753     0.753
   02/06/2018 21:52:00      1.837     0.000     0.753     0.753
   02/06/2018 21:53:00      1.837     0.000     0.753     0.753
   02/06/2018 21:54:00      1.837     0.000     0.753     0.753
   02/06/2018 21:55:00      1.836     0.000     0.753     0.753
   02/06/2018 21:56:00      1.836     0.000     0.753     0.753
   02/06/2018 21:57:00      1.835     0.000     0.753     0.753
   02/06/2018 21:58:00      1.835     0.000     0.753     0.753
   02/06/2018 21:59:00      1.834     0.000     0.753     0.753
   02/06/2018 22:00:00      1.834     0.000     0.753     0.753
   02/06/2018 22:01:00      1.335     0.000     0.747     0.747
   02/06/2018 22:02:00      1.336     0.000     0.747     0.747
   02/06/2018 22:03:00      1.336     0.000     0.747     0.747
   02/06/2018 22:04:00      1.336     0.000     0.747     0.747
   02/06/2018 22:05:00      1.336     0.000     0.747     0.747
   02/06/2018 22:06:00      1.337     0.000     0.747     0.747
   02/06/2018 22:07:00      1.337     0.000     0.747     0.747
   02/06/2018 22:08:00      1.337     0.000     0.747     0.747
   02/06/2018 22:09:00      1.337     0.000     0.747     0.747
   02/06/2018 22:10:00      1.337     0.000     0.747     0.747
   02/06/2018 22:11:00      1.338     0.000     0.747     0.747
   02/06/2018 22:12:00      1.338     0.000     0.747     0.747
   02/06/2018 22:13:00      1.338     0.000     0.747     0.747
   02/06/2018 22:14:00      1.338     0.000     0.747     0.747
   02/06/2018 22:15:00      1.339     0.000     0.747     0.747
   02/06/2018 22:16:00      1.824     0.000     0.724     0.724
   02/06/2018 22:17:00      1.824     0.000     0.724     0.724
   02/06/2018 22:18:00      1.823     0.000     0.724     0.724
   02/06/2018 22:19:00      1.823     0.000     0.724     0.724
   02/06/2018 22:20:00      1.822     0.000     0.724     0.724
   02/06/2018 22:21:00      1.822     0.000     0.724     0.724
   02/06/2018 22:22:00      1.821     0.000     0.724     0.724
   02/06/2018 22:23:00      1.820     0.000     0.724     0.724
   02/06/2018 22:24:00      1.820     0.000     0.724     0.724
   02/06/2018 22:25:00      1.819     0.000     0.724     0.724
   02/06/2018 22:26:00      1.819     0.000     0.724     0.724
   02/06/2018 22:27:00      1.818     0.000     0.724     0.724
   02/06/2018 22:28:00      1.817     0.000     0.724     0.724
   02/06/2018 22:29:00      1.817     0.000     0.724     0.724
   02/06/2018 22:30:00      1.816     0.000     0.724     0.724
   02/06/2018 22:31:00      1.665     0.000     0.662     0.662
   02/06/2018 22:32:00      1.666     0.000     0.662     0.662
   02/06/2018 22:33:00      1.665     0.000     0.662     0.662
   02/06/2018 22:34:00      1.665     0.000     0.662     0.662
   02/06/2018 22:35:00      1.665     0.000     0.662     0.662
   02/06/2018 22:36:00      1.665     0.000     0.662     0.662
   02/06/2018 22:37:00      1.665     0.000     0.662     0.662
   02/06/2018 22:38:00      1.664     0.000     0.662     0.662
   02/06/2018 22:39:00      1.664     0.000     0.662     0.662
   02/06/2018 22:40:00      1.664     0.000     0.662     0.662
   02/06/2018 22:41:00      1.664     0.000     0.662     0.662
   02/06/2018 22:42:00      1.664     0.000     0.662     0.662
   02/06/2018 22:43:00      1.664     0.000     0.662     0.662
   02/06/2018 22:44:00      1.663     0.000     0.662     0.662
   02/06/2018 22:45:00      1.663     0.000     0.662     0.662
   02/06/2018 22:46:00      1.598     0.000     0.622     0.622
   02/06/2018 22:47:00      1.599     0.000     0.622     0.622
   02/06/2018 22:48:00      1.599     0.000     0.622     0.622
   02/06/2018 22:49:00      1.599     0.000     0.622     0.622
   02/06/2018 22:50:00      1.599     0.000     0.622     0.622
   02/06/2018 22:51:00      1.598     0.000     0.622     0.622
   02/06/2018 22:52:00      1.598     0.000     0.622     0.622
   02/06/2018 22:53:00      1.598     0.000     0.622     0.622
   02/06/2018 22:54:00      1.598     0.000     0.622     0.622
   02/06/2018 22:55:00      1.598     0.000     0.622     0.622
   02/06/2018 22:56:00      1.598     0.000     0.622     0.622
   02/06/2018 22:57:00      1.598     0.000     0.622     0.622
   02/06/2018 22:58:00      1.598     0.000     0.622     0.622
   02/06/2018 22:59:00      1.598     0.000     0.622     0.622
   02/06/2018 23:00:00      1.598     0.000     0.622     0.622
   02/06/2018 23:01:00      1.609     0.000     0.653     0.653
   02/06/2018 23:02:00      1.607     0.000     0.653     0.653
   02/06/2018 23:03:00      1.607     0.000     0.653     0.653
   02/06/2018 23:04:00      1.607     0.000     0.653     0.653
   02/06/2018 23:05:00      1.607     0.000     0.653     0.653
   02/06/2018 23:06:00      1.606     0.000     0.653     0.653
   02/06/2018 23:07:00      1.606     0.000     0.653     0.653
   02/06/2018 23:08:00      1.606     0.000     0.653     0.653
   02/06/2018 23:09:00      1.606     0.000     0.653     0.653
   02/06/2018 23:10:00      1.606     0.000     0.653     0.653
   02/06/2018 23:11:00      1.606     0.000     0.653     0.653
   02/06/2018 23:12:00      1.606     0.000     0.653     0.653
   02/06/2018 23:13:00      1.606     0.000     0.653     0.653
   02/06/2018 23:14:00      1.606     0.000     0.653     0.653
   02/06/2018 23:15:00      1.606     0.000     0.653     0.653
   02/06/2018 23:16:00      1.686     0.000     0.655     0.655
   02/06/2018 23:17:00      1.687     0.000     0.655     0.655
   02/06/2018 23:18:00      1.687     0.000     0.655     0.655
   02/06/2018 23:19:00      1.687     0.000     0.655     0.655
   02/06/2018 23:20:00      1.686     0.000     0.655     0.655
   02/06/2018 23:21:00      1.686     0.000     0.655     0.655
   02/06/2018 23:22:00      1.686     0.000     0.655     0.655
   02/06/2018 23:23:00      1.685     0.000     0.655     0.655
   02/06/2018 23:24:00      1.685     0.000     0.655     0.655
   02/06/2018 23:25:00      1.685     0.000     0.655     0.655
   02/06/2018 23:26:00      1.684     0.000     0.655     0.655
   02/06/2018 23:27:00      1.684     0.000     0.655     0.655
   02/06/2018 23:28:00      1.684     0.000     0.655     0.655
   02/06/2018 23:29:00      1.683     0.000     0.655     0.655
   02/06/2018 23:30:00      1.683     0.000     0.655     0.655
   02/06/2018 23:31:00      1.717     0.000     0.665     0.665
   02/06/2018 23:32:00      1.717     0.000     0.665     0.665
   02/06/2018 23:33:00      1.716     0.000     0.665     0.665
   02/06/2018 23:34:00      1.716     0.000     0.665     0.665
   02/06/2018 23:35:00      1.716     0.000     0.665     0.665
   02/06/2018 23:36:00      1.715     0.000     0.665     0.665
   02/06/2018 23:37:00      1.715     0.000     0.665     0.665
   02/06/2018 23:38:00      1.714     0.000     0.665     0.665
   02/06/2018 23:39:00      1.714     0.000     0.665     0.665
   02/06/2018 23:40:00      1.713     0.000     0.665     0.665
   02/06/2018 23:41:00      1.713     0.000     0.665     0.665
   02/06/2018 23:42:00      1.713     0.000     0.665     0.665
   02/06/2018 23:43:00      1.712     0.000     0.665     0.665
   02/06/2018 23:44:00      1.712     0.000     0.665     0.665
   02/06/2018 23:45:00      1.711     0.000     0.665     0.665
  
  
  **************************        Volume         Depth
  Runoff Quantity Continuity     acre-feet        inches
  **************************     ---------       -------
  Total Precipitation ......        35.933         3.080
  Evaporation Loss .........         0.000         0.000
  Infiltration Loss ........        23.398         2.006
  Surface Runoff ...........        12.431         1.066
  Final Storage ............         0.135         0.012
  Continuity Error (%) .....        -0.086
  
  
  **************************        Volume        Volume
  Flow Routing Continuity        acre-feet      10^6 gal
  **************************     ---------     ---------
  Dry Weather Inflow .......         0.000         0.000
  Wet Weather Inflow .......        12.432         4.051
  Groundwater Inflow .......         0.000         0.000
  RDII Inflow ..............         0.000         0.000
  External Inflow ..........         0.000         0.000
  External Outflow .........         6.063         1.976
  Flooding Loss ............         0.935         0.305
  Evaporation Loss .........         0.000         0.000
  Exfiltration Loss ........         0.000         0.000
  Initial Stored Volume ....         2.066         0.673
  Final Stored Volume ......         7.633         2.487
  Continuity Error (%) .....        -0.921
  
  
  *************************
  Highest Continuity Errors
  *************************
  Node J2 (-1.85%)
  
  
  ***************************
  Time-Step Critical Elements
  ***************************
  None
  
  
  ********************************
  Highest Flow Instability Indexes
  ********************************
  Link R2 (19)
  Link R1 (18)
  Link C2 (11)
  
  
  *************************
  Routing Time Step Summary
  *************************
  Minimum Time Step           :     4.68 sec
  Average Time Step           :    10.00 sec
  Maximum Time Step           :    10.00 sec
  Percent in Steady State     :     0.00
  Average Iterations per Step :     4.79
  Percent Not Converging      :    45.86
  
  
  ***************************
  Subcatchment Runoff Summary
  ***************************
  
  --------------------------------------------------------------------------------------------------------
                            Total      Total      Total      Total      Total       Total     Peak  Runoff
                           Precip      Runon       Evap      Infil     Runoff      Runoff   Runoff   Coeff
  Subcatchment                 in         in         in         in         in    10^6 gal      CFS
  --------------------------------------------------------------------------------------------------------
  S1                         3.08       0.00       0.00       2.01       1.06        2.01    71.89   0.344
  S2                         3.08       0.00       0.00       2.00       1.07        2.04    84.41   0.348
  
  
  ******************
  Node Depth Summary
  ******************
  
  ---------------------------------------------------------------------------------
                                 Average  Maximum  Maximum  Time of Max    Reported
                                   Depth    Depth      HGL   Occurrence   Max Depth
  Node                 Type         Feet     Feet     Feet  days hr:min        Feet
  ---------------------------------------------------------------------------------
  J2                   JUNCTION     2.49     3.70    93.70     0  10:00        3.69
  J3                   JUNCTION     1.69     2.00    90.00     0  06:27        2.00
  Out1                 OUTFALL      0.74     0.80    87.80     0  06:34        0.80
  St1                  STORAGE      2.90     4.12    94.12     0  10:27        4.12
  St2                  STORAGE      2.85     4.11    94.11     0  08:53        4.11
  
  
  *******************
  Node Inflow Summary
  *******************
  
  -------------------------------------------------------------------------------------------------
                                  Maximum  Maximum                  Lateral       Total        Flow
                                  Lateral    Total  Time of Max      Inflow      Inflow     Balance
                                   Inflow   Inflow   Occurrence      Volume      Volume       Error
  Node                 Type           CFS      CFS  days hr:min    10^6 gal    10^6 gal     Percent
  -------------------------------------------------------------------------------------------------
  J2                   JUNCTION      0.00     6.42     0  00:00           0        2.24      -1.815
  J3                   JUNCTION      0.00     4.45     0  10:16           0        2.28       0.118
  Out1                 OUTFALL       0.00     3.47     0  07:06           0        1.98       0.000
  St1                  STORAGE      71.89    71.89     0  06:15        2.01        2.35      -0.015
  St2                  STORAGE      84.41    84.41     0  06:30        2.04        2.37       0.009
  
  
  **********************
  Node Surcharge Summary
  **********************
  
  Surcharging occurs when water rises above the top of the highest conduit.
  ---------------------------------------------------------------------
                                               Max. Height   Min. Depth
                                   Hours       Above Crown    Below Rim
  Node                 Type      Surcharged           Feet         Feet
  ---------------------------------------------------------------------
  J2                   JUNCTION       17.80          2.695        0.305
  J3                   JUNCTION       18.69          1.000        0.000
  
  
  *********************
  Node Flooding Summary
  *********************
  
  Flooding refers to all water that overflows a node, whether it ponds or not.
  --------------------------------------------------------------------------
                                                             Total   Maximum
                                 Maximum   Time of Max       Flood    Ponded
                        Hours       Rate    Occurrence      Volume     Depth
  Node                 Flooded       CFS   days hr:min    10^6 gal      Feet
  --------------------------------------------------------------------------
  J3                     17.30      0.98      0  10:16       0.305     0.000
  
  
  **********************
  Storage Volume Summary
  **********************
  
  --------------------------------------------------------------------------------------------------
                         Average     Avg  Evap Exfil       Maximum     Max    Time of Max    Maximum
                          Volume    Pcnt  Pcnt  Pcnt        Volume    Pcnt     Occurrence    Outflow
  Storage Unit          1000 ft3    Full  Loss  Loss      1000 ft3    Full    days hr:min        CFS
  --------------------------------------------------------------------------------------------------
  St1                    174.162      58     0     0       246.958      82       0  10:27       3.23
  St2                    170.887      57     0     0       246.823      82       0  08:53       3.45
  
  
  ***********************
  Outfall Loading Summary
  ***********************
  
  -----------------------------------------------------------
                         Flow       Avg       Max       Total
                         Freq      Flow      Flow      Volume
  Outfall Node           Pcnt       CFS       CFS    10^6 gal
  -----------------------------------------------------------
  Out1                  99.96      3.09      3.47       1.975
  -----------------------------------------------------------
  System                99.96      3.09      3.47       1.975
  
  
  ********************
  Link Flow Summary
  ********************
  
  -----------------------------------------------------------------------------
                                 Maximum  Time of Max   Maximum    Max/    Max/
                                  |Flow|   Occurrence   |Veloc|    Full    Full
  Link                 Type          CFS  days hr:min    ft/sec    Flow   Depth
  -----------------------------------------------------------------------------
  C2                   CONDUIT      4.45     0  10:16      5.81    1.36    1.00
  C3                   CONDUIT      3.47     0  07:06      4.67    1.50    0.90
  R1                   ORIFICE      3.23     0  06:15                          
  R2                   ORIFICE      3.45     0  00:00                          
  
  
  ***************************
  Flow Classification Summary
  ***************************
  
  -------------------------------------------------------------------------------------
                      Adjusted    ---------- Fraction of Time in Flow Class ---------- 
                       /Actual         Up    Down  Sub   Sup   Up    Down  Norm  Inlet 
  Conduit               Length    Dry  Dry   Dry   Crit  Crit  Crit  Crit  Ltd   Ctrl  
  -------------------------------------------------------------------------------------
  C2                      1.00   0.00  0.00  0.00  1.00  0.00  0.00  0.00  0.22  0.00
  C3                      1.00   0.00  0.00  0.00  1.00  0.00  0.00  0.00  0.00  0.00
  
  
  *************************
  Conduit Surcharge Summary
  *************************
  
  ----------------------------------------------------------------------------
                                                           Hours        Hours 
                         --------- Hours Full --------   Above Full   Capacity
  Conduit                Both Ends  Upstream  Dnstream   Normal Flow   Limited
  ----------------------------------------------------------------------------
  C2                         17.80     17.80     18.69     17.45        17.45
  C3                          0.01     18.69      0.01     19.21         0.01
  

  Analysis begun on:  Sun Jul 28 19:55:56 2019
  Analysis ended on:  Sun Jul 28 19:55:59 2019
  Total elapsed time: 00:00:03