
  EPA STORM WATER MANAGEMENT MODEL - VERSION 5.1 (Build 5.2.0.dev3)
  --------------------------------------------------------------

  
  *********************************************************
  NOTE: The summary statistics displayed in this report are
  based on results found at every computational time step,  
  not just on results from each reporting time step.
  *********************************************************
  
  ****************
  Analysis Options
  ****************
  Flow Units ............... CFS
  Process Models:
    Rainfall/Runoff ........ YES
    RDII ................... NO
    Snowmelt ............... NO
    Groundwater ............ NO
    Flow Routing ........... YES
    Ponding Allowed ........ NO
    Water Quality .......... NO
  Infiltration Method ...... MODIFIED_GREEN_AMPT
  Flow Routing Method ...... DYNWAVE
  Starting Date ............ 02/06/2018 00:00:00
  Ending Date .............. 02/07/2018 00:00:00
  Antecedent Dry Days ...... 0.0
  Report Time Step ......... 00:01:00
  Wet Time Step ............ 00:05:00
  Dry Time Step ............ 01:00:00
  Routing Time Step ........ 10.00 sec
  Variable Time Step ....... YES
  Maximum Trials ........... 8
  Number of Threads ........ 1
  Head Tolerance ........... 0.005000 ft
  
  
  *********************
  Control Actions Taken
  *********************
   02/06/2018: 00:00:00 Link R1 setting changed to   0.00 by Control ToolkitAPI
   02/06/2018: 00:00:00 Link R2 setting changed to   0.00 by Control ToolkitAPI
   02/06/2018: 00:00:00 Link R1 setting changed to   1.00 by Control ToolkitAPI
   02/06/2018: 00:00:00 Link R2 setting changed to   1.00 by Control ToolkitAPI
   02/06/2018: 00:15:01 Link R1 setting changed to   1.00 by Control ToolkitAPI
   02/06/2018: 00:15:01 Link R2 setting changed to   1.00 by Control ToolkitAPI
   02/06/2018: 00:30:01 Link R1 setting changed to   1.00 by Control ToolkitAPI
   02/06/2018: 00:30:01 Link R2 setting changed to   1.00 by Control ToolkitAPI
   02/06/2018: 00:45:01 Link R1 setting changed to   1.00 by Control ToolkitAPI
   02/06/2018: 00:45:01 Link R2 setting changed to   1.00 by Control ToolkitAPI
   02/06/2018: 01:00:01 Link R1 setting changed to   1.00 by Control ToolkitAPI
   02/06/2018: 01:00:01 Link R2 setting changed to   1.00 by Control ToolkitAPI
   02/06/2018: 01:15:01 Link R1 setting changed to   1.00 by Control ToolkitAPI
   02/06/2018: 01:15:01 Link R2 setting changed to   1.00 by Control ToolkitAPI
   02/06/2018: 01:30:01 Link R1 setting changed to   1.00 by Control ToolkitAPI
   02/06/2018: 01:30:01 Link R2 setting changed to   1.00 by Control ToolkitAPI
   02/06/2018: 01:45:01 Link R1 setting changed to   1.00 by Control ToolkitAPI
   02/06/2018: 01:45:01 Link R2 setting changed to   1.00 by Control ToolkitAPI
   02/06/2018: 02:00:01 Link R1 setting changed to   1.00 by Control ToolkitAPI
   02/06/2018: 02:00:01 Link R2 setting changed to   1.00 by Control ToolkitAPI
   02/06/2018: 02:15:01 Link R1 setting changed to   1.00 by Control ToolkitAPI
   02/06/2018: 02:15:01 Link R2 setting changed to   1.00 by Control ToolkitAPI
   02/06/2018: 02:30:01 Link R1 setting changed to   1.00 by Control ToolkitAPI
   02/06/2018: 02:30:01 Link R2 setting changed to   1.00 by Control ToolkitAPI
   02/06/2018: 02:45:01 Link R1 setting changed to   1.00 by Control ToolkitAPI
   02/06/2018: 02:45:01 Link R2 setting changed to   1.00 by Control ToolkitAPI
   02/06/2018: 03:00:01 Link R1 setting changed to   1.00 by Control ToolkitAPI
   02/06/2018: 03:00:01 Link R2 setting changed to   1.00 by Control ToolkitAPI
   02/06/2018: 03:15:01 Link R1 setting changed to   1.00 by Control ToolkitAPI
   02/06/2018: 03:15:01 Link R2 setting changed to   1.00 by Control ToolkitAPI
   02/06/2018: 03:30:01 Link R1 setting changed to   1.00 by Control ToolkitAPI
   02/06/2018: 03:30:01 Link R2 setting changed to   1.00 by Control ToolkitAPI
   02/06/2018: 03:45:01 Link R1 setting changed to   1.00 by Control ToolkitAPI
   02/06/2018: 03:45:01 Link R2 setting changed to   1.00 by Control ToolkitAPI
   02/06/2018: 04:00:01 Link R1 setting changed to   1.00 by Control ToolkitAPI
   02/06/2018: 04:00:01 Link R2 setting changed to   1.00 by Control ToolkitAPI
   02/06/2018: 04:15:01 Link R1 setting changed to   1.00 by Control ToolkitAPI
   02/06/2018: 04:15:01 Link R2 setting changed to   1.00 by Control ToolkitAPI
   02/06/2018: 04:30:01 Link R1 setting changed to   1.00 by Control ToolkitAPI
   02/06/2018: 04:30:01 Link R2 setting changed to   1.00 by Control ToolkitAPI
   02/06/2018: 04:45:01 Link R1 setting changed to   1.00 by Control ToolkitAPI
   02/06/2018: 04:45:01 Link R2 setting changed to   1.00 by Control ToolkitAPI
   02/06/2018: 05:00:01 Link R1 setting changed to   1.00 by Control ToolkitAPI
   02/06/2018: 05:00:01 Link R2 setting changed to   1.00 by Control ToolkitAPI
   02/06/2018: 05:15:01 Link R1 setting changed to   1.00 by Control ToolkitAPI
   02/06/2018: 05:15:01 Link R2 setting changed to   1.00 by Control ToolkitAPI
   02/06/2018: 05:30:01 Link R1 setting changed to   1.00 by Control ToolkitAPI
   02/06/2018: 05:30:01 Link R2 setting changed to   1.00 by Control ToolkitAPI
   02/06/2018: 05:45:01 Link R1 setting changed to   1.00 by Control ToolkitAPI
   02/06/2018: 05:45:01 Link R2 setting changed to   1.00 by Control ToolkitAPI
   02/06/2018: 06:00:02 Link R1 setting changed to   1.00 by Control ToolkitAPI
   02/06/2018: 06:00:02 Link R2 setting changed to   1.00 by Control ToolkitAPI
   02/06/2018: 06:15:02 Link R1 setting changed to   1.00 by Control ToolkitAPI
   02/06/2018: 06:15:02 Link R2 setting changed to   1.00 by Control ToolkitAPI
   02/06/2018: 06:30:02 Link R1 setting changed to   1.00 by Control ToolkitAPI
   02/06/2018: 06:30:02 Link R2 setting changed to   1.00 by Control ToolkitAPI
   02/06/2018: 06:45:02 Link R1 setting changed to   1.00 by Control ToolkitAPI
   02/06/2018: 06:45:02 Link R2 setting changed to   1.00 by Control ToolkitAPI
   02/06/2018: 07:00:02 Link R1 setting changed to   1.00 by Control ToolkitAPI
   02/06/2018: 07:00:02 Link R2 setting changed to   1.00 by Control ToolkitAPI
   02/06/2018: 07:15:02 Link R1 setting changed to   1.00 by Control ToolkitAPI
   02/06/2018: 07:15:02 Link R2 setting changed to   1.00 by Control ToolkitAPI
   02/06/2018: 07:30:02 Link R1 setting changed to   1.00 by Control ToolkitAPI
   02/06/2018: 07:30:02 Link R2 setting changed to   1.00 by Control ToolkitAPI
   02/06/2018: 07:45:02 Link R1 setting changed to   1.00 by Control ToolkitAPI
   02/06/2018: 07:45:02 Link R2 setting changed to   1.00 by Control ToolkitAPI
   02/06/2018: 08:00:02 Link R1 setting changed to   1.00 by Control ToolkitAPI
   02/06/2018: 08:00:02 Link R2 setting changed to   1.00 by Control ToolkitAPI
   02/06/2018: 08:15:02 Link R1 setting changed to   1.00 by Control ToolkitAPI
   02/06/2018: 08:15:02 Link R2 setting changed to   1.00 by Control ToolkitAPI
   02/06/2018: 08:30:02 Link R1 setting changed to   1.00 by Control ToolkitAPI
   02/06/2018: 08:30:02 Link R2 setting changed to   1.00 by Control ToolkitAPI
   02/06/2018: 08:45:02 Link R1 setting changed to   1.00 by Control ToolkitAPI
   02/06/2018: 08:45:02 Link R2 setting changed to   1.00 by Control ToolkitAPI
   02/06/2018: 09:00:02 Link R1 setting changed to   1.00 by Control ToolkitAPI
   02/06/2018: 09:00:02 Link R2 setting changed to   1.00 by Control ToolkitAPI
   02/06/2018: 09:15:02 Link R1 setting changed to   1.00 by Control ToolkitAPI
   02/06/2018: 09:15:02 Link R2 setting changed to   1.00 by Control ToolkitAPI
   02/06/2018: 09:30:02 Link R1 setting changed to   1.00 by Control ToolkitAPI
   02/06/2018: 09:30:02 Link R2 setting changed to   1.00 by Control ToolkitAPI
   02/06/2018: 09:45:02 Link R1 setting changed to   1.00 by Control ToolkitAPI
   02/06/2018: 09:45:02 Link R2 setting changed to   1.00 by Control ToolkitAPI
   02/06/2018: 10:00:02 Link R1 setting changed to   1.00 by Control ToolkitAPI
   02/06/2018: 10:00:02 Link R2 setting changed to   1.00 by Control ToolkitAPI
   02/06/2018: 10:15:02 Link R1 setting changed to   1.00 by Control ToolkitAPI
   02/06/2018: 10:15:02 Link R2 setting changed to   1.00 by Control ToolkitAPI
   02/06/2018: 10:30:02 Link R1 setting changed to   1.00 by Control ToolkitAPI
   02/06/2018: 10:30:02 Link R2 setting changed to   1.00 by Control ToolkitAPI
   02/06/2018: 10:45:02 Link R1 setting changed to   1.00 by Control ToolkitAPI
   02/06/2018: 10:45:02 Link R2 setting changed to   1.00 by Control ToolkitAPI
   02/06/2018: 11:00:02 Link R1 setting changed to   1.00 by Control ToolkitAPI
   02/06/2018: 11:00:02 Link R2 setting changed to   1.00 by Control ToolkitAPI
