
  EPA STORM WATER MANAGEMENT MODEL - VERSION 5.1 (Build 5.2.0.dev3)
  --------------------------------------------------------------

  
  *********************************************************
  NOTE: The summary statistics displayed in this report are
  based on results found at every computational time step,  
  not just on results from each reporting time step.
  *********************************************************
  
  ****************
  Analysis Options
  ****************
  Flow Units ............... CFS
  Process Models:
    Rainfall/Runoff ........ YES
    RDII ................... NO
    Snowmelt ............... NO
    Groundwater ............ NO
    Flow Routing ........... YES
    Ponding Allowed ........ NO
    Water Quality .......... NO
  Infiltration Method ...... MODIFIED_GREEN_AMPT
  Flow Routing Method ...... DYNWAVE
  Starting Date ............ 02/06/2018 00:00:00
  Ending Date .............. 02/07/2018 00:00:00
  Antecedent Dry Days ...... 0.0
  Report Time Step ......... 00:01:00
  Wet Time Step ............ 00:05:00
  Dry Time Step ............ 01:00:00
  Routing Time Step ........ 10.00 sec
  Variable Time Step ....... YES
  Maximum Trials ........... 8
  Number of Threads ........ 1
  Head Tolerance ........... 0.005000 ft
  
  
  *********************
  Control Actions Taken
  *********************
   02/06/2018: 00:00:00 Link R1 setting changed to   0.00 by Control ToolkitAPI
   02/06/2018: 00:00:00 Link R2 setting changed to   0.00 by Control ToolkitAPI
   02/06/2018: 00:00:00 Link R3 setting changed to   0.00 by Control ToolkitAPI
   02/06/2018: 00:00:00 Link R4 setting changed to   0.00 by Control ToolkitAPI
   02/06/2018: 00:00:00 Link R5 setting changed to   0.00 by Control ToolkitAPI
   02/06/2018: 00:00:00 Link R6 setting changed to   0.00 by Control ToolkitAPI
   02/06/2018: 00:00:00 Link R1 setting changed to   0.69 by Control ToolkitAPI
   02/06/2018: 00:00:00 Link R2 setting changed to   0.11 by Control ToolkitAPI
   02/06/2018: 00:00:00 Link R3 setting changed to   0.26 by Control ToolkitAPI
   02/06/2018: 00:00:00 Link R4 setting changed to   0.52 by Control ToolkitAPI
   02/06/2018: 00:00:00 Link R5 setting changed to   0.00 by Control ToolkitAPI
   02/06/2018: 00:00:00 Link R6 setting changed to   0.25 by Control ToolkitAPI
   02/06/2018: 00:15:01 Link R1 setting changed to   0.74 by Control ToolkitAPI
   02/06/2018: 00:15:01 Link R2 setting changed to   0.00 by Control ToolkitAPI
   02/06/2018: 00:15:01 Link R3 setting changed to   0.23 by Control ToolkitAPI
   02/06/2018: 00:15:01 Link R4 setting changed to   0.43 by Control ToolkitAPI
   02/06/2018: 00:15:01 Link R5 setting changed to   0.00 by Control ToolkitAPI
   02/06/2018: 00:15:01 Link R6 setting changed to   0.21 by Control ToolkitAPI
   02/06/2018: 00:30:01 Link R1 setting changed to   0.76 by Control ToolkitAPI
   02/06/2018: 00:30:01 Link R2 setting changed to   0.00 by Control ToolkitAPI
   02/06/2018: 00:30:01 Link R3 setting changed to   0.23 by Control ToolkitAPI
   02/06/2018: 00:30:01 Link R4 setting changed to   0.43 by Control ToolkitAPI
   02/06/2018: 00:30:01 Link R5 setting changed to   0.00 by Control ToolkitAPI
   02/06/2018: 00:30:01 Link R6 setting changed to   0.23 by Control ToolkitAPI
   02/06/2018: 00:45:01 Link R1 setting changed to   0.80 by Control ToolkitAPI
   02/06/2018: 00:45:01 Link R2 setting changed to   0.00 by Control ToolkitAPI
   02/06/2018: 00:45:01 Link R3 setting changed to   0.20 by Control ToolkitAPI
   02/06/2018: 00:45:01 Link R4 setting changed to   0.45 by Control ToolkitAPI
   02/06/2018: 00:45:01 Link R5 setting changed to   0.00 by Control ToolkitAPI
   02/06/2018: 00:45:01 Link R6 setting changed to   0.29 by Control ToolkitAPI
   02/06/2018: 01:00:01 Link R1 setting changed to   0.80 by Control ToolkitAPI
   02/06/2018: 01:00:01 Link R2 setting changed to   0.00 by Control ToolkitAPI
   02/06/2018: 01:00:01 Link R3 setting changed to   0.24 by Control ToolkitAPI
   02/06/2018: 01:00:01 Link R4 setting changed to   0.49 by Control ToolkitAPI
   02/06/2018: 01:00:01 Link R5 setting changed to   0.00 by Control ToolkitAPI
   02/06/2018: 01:00:01 Link R6 setting changed to   0.32 by Control ToolkitAPI
   02/06/2018: 01:15:01 Link R1 setting changed to   0.78 by Control ToolkitAPI
   02/06/2018: 01:15:01 Link R2 setting changed to   0.00 by Control ToolkitAPI
   02/06/2018: 01:15:01 Link R3 setting changed to   0.20 by Control ToolkitAPI
   02/06/2018: 01:15:01 Link R4 setting changed to   0.49 by Control ToolkitAPI
   02/06/2018: 01:15:01 Link R5 setting changed to   0.00 by Control ToolkitAPI
   02/06/2018: 01:15:01 Link R6 setting changed to   0.30 by Control ToolkitAPI
   02/06/2018: 01:30:01 Link R1 setting changed to   0.76 by Control ToolkitAPI
   02/06/2018: 01:30:01 Link R2 setting changed to   0.00 by Control ToolkitAPI
   02/06/2018: 01:30:01 Link R3 setting changed to   0.21 by Control ToolkitAPI
   02/06/2018: 01:30:01 Link R4 setting changed to   0.52 by Control ToolkitAPI
   02/06/2018: 01:30:01 Link R5 setting changed to   0.00 by Control ToolkitAPI
   02/06/2018: 01:30:01 Link R6 setting changed to   0.30 by Control ToolkitAPI
   02/06/2018: 01:45:01 Link R1 setting changed to   0.73 by Control ToolkitAPI
   02/06/2018: 01:45:01 Link R2 setting changed to   0.00 by Control ToolkitAPI
   02/06/2018: 01:45:01 Link R3 setting changed to   0.20 by Control ToolkitAPI
   02/06/2018: 01:45:01 Link R4 setting changed to   0.54 by Control ToolkitAPI
   02/06/2018: 01:45:01 Link R5 setting changed to   0.00 by Control ToolkitAPI
   02/06/2018: 01:45:01 Link R6 setting changed to   0.29 by Control ToolkitAPI
   02/06/2018: 02:00:01 Link R1 setting changed to   0.82 by Control ToolkitAPI
   02/06/2018: 02:00:01 Link R2 setting changed to   0.00 by Control ToolkitAPI
   02/06/2018: 02:00:01 Link R3 setting changed to   0.23 by Control ToolkitAPI
   02/06/2018: 02:00:01 Link R4 setting changed to   0.57 by Control ToolkitAPI
   02/06/2018: 02:00:01 Link R5 setting changed to   0.00 by Control ToolkitAPI
   02/06/2018: 02:00:01 Link R6 setting changed to   0.27 by Control ToolkitAPI
   02/06/2018: 02:15:01 Link R1 setting changed to   0.79 by Control ToolkitAPI
   02/06/2018: 02:15:01 Link R2 setting changed to   0.02 by Control ToolkitAPI
   02/06/2018: 02:15:01 Link R3 setting changed to   0.24 by Control ToolkitAPI
   02/06/2018: 02:15:01 Link R4 setting changed to   0.60 by Control ToolkitAPI
   02/06/2018: 02:15:01 Link R5 setting changed to   0.00 by Control ToolkitAPI
   02/06/2018: 02:15:01 Link R6 setting changed to   0.27 by Control ToolkitAPI
   02/06/2018: 02:30:01 Link R1 setting changed to   0.87 by Control ToolkitAPI
   02/06/2018: 02:30:01 Link R2 setting changed to   0.04 by Control ToolkitAPI
   02/06/2018: 02:30:01 Link R3 setting changed to   0.23 by Control ToolkitAPI
   02/06/2018: 02:30:01 Link R4 setting changed to   0.59 by Control ToolkitAPI
   02/06/2018: 02:30:01 Link R5 setting changed to   0.00 by Control ToolkitAPI
   02/06/2018: 02:30:01 Link R6 setting changed to   0.37 by Control ToolkitAPI
   02/06/2018: 02:45:01 Link R1 setting changed to   0.87 by Control ToolkitAPI
   02/06/2018: 02:45:01 Link R2 setting changed to   0.03 by Control ToolkitAPI
   02/06/2018: 02:45:01 Link R3 setting changed to   0.24 by Control ToolkitAPI
   02/06/2018: 02:45:01 Link R4 setting changed to   0.61 by Control ToolkitAPI
   02/06/2018: 02:45:01 Link R5 setting changed to   0.00 by Control ToolkitAPI
   02/06/2018: 02:45:01 Link R6 setting changed to   0.32 by Control ToolkitAPI
   02/06/2018: 03:00:01 Link R1 setting changed to   0.85 by Control ToolkitAPI
   02/06/2018: 03:00:01 Link R2 setting changed to   0.01 by Control ToolkitAPI
   02/06/2018: 03:00:01 Link R3 setting changed to   0.27 by Control ToolkitAPI
   02/06/2018: 03:00:01 Link R4 setting changed to   0.63 by Control ToolkitAPI
   02/06/2018: 03:00:01 Link R5 setting changed to   0.00 by Control ToolkitAPI
   02/06/2018: 03:00:01 Link R6 setting changed to   0.34 by Control ToolkitAPI
   02/06/2018: 03:15:01 Link R1 setting changed to   0.83 by Control ToolkitAPI
   02/06/2018: 03:15:01 Link R2 setting changed to   0.02 by Control ToolkitAPI
   02/06/2018: 03:15:01 Link R3 setting changed to   0.21 by Control ToolkitAPI
   02/06/2018: 03:15:01 Link R4 setting changed to   0.67 by Control ToolkitAPI
   02/06/2018: 03:15:01 Link R5 setting changed to   0.00 by Control ToolkitAPI
   02/06/2018: 03:15:01 Link R6 setting changed to   0.32 by Control ToolkitAPI
   02/06/2018: 03:30:01 Link R1 setting changed to   0.81 by Control ToolkitAPI
   02/06/2018: 03:30:01 Link R2 setting changed to   0.00 by Control ToolkitAPI
   02/06/2018: 03:30:01 Link R3 setting changed to   0.24 by Control ToolkitAPI
   02/06/2018: 03:30:01 Link R4 setting changed to   0.72 by Control ToolkitAPI
   02/06/2018: 03:30:01 Link R5 setting changed to   0.00 by Control ToolkitAPI
   02/06/2018: 03:30:01 Link R6 setting changed to   0.30 by Control ToolkitAPI
   02/06/2018: 03:45:01 Link R1 setting changed to   0.82 by Control ToolkitAPI
   02/06/2018: 03:45:01 Link R2 setting changed to   0.05 by Control ToolkitAPI
   02/06/2018: 03:45:01 Link R3 setting changed to   0.22 by Control ToolkitAPI
   02/06/2018: 03:45:01 Link R4 setting changed to   0.76 by Control ToolkitAPI
   02/06/2018: 03:45:01 Link R5 setting changed to   0.00 by Control ToolkitAPI
   02/06/2018: 03:45:01 Link R6 setting changed to   0.33 by Control ToolkitAPI
   02/06/2018: 04:00:01 Link R1 setting changed to   0.82 by Control ToolkitAPI
   02/06/2018: 04:00:01 Link R2 setting changed to   0.04 by Control ToolkitAPI
   02/06/2018: 04:00:01 Link R3 setting changed to   0.21 by Control ToolkitAPI
   02/06/2018: 04:00:01 Link R4 setting changed to   0.73 by Control ToolkitAPI
   02/06/2018: 04:00:01 Link R5 setting changed to   0.00 by Control ToolkitAPI
   02/06/2018: 04:00:01 Link R6 setting changed to   0.34 by Control ToolkitAPI
   02/06/2018: 04:15:01 Link R1 setting changed to   0.86 by Control ToolkitAPI
   02/06/2018: 04:15:01 Link R2 setting changed to   0.07 by Control ToolkitAPI
   02/06/2018: 04:15:01 Link R3 setting changed to   0.23 by Control ToolkitAPI
   02/06/2018: 04:15:01 Link R4 setting changed to   0.72 by Control ToolkitAPI
   02/06/2018: 04:15:01 Link R5 setting changed to   0.00 by Control ToolkitAPI
   02/06/2018: 04:15:01 Link R6 setting changed to   0.37 by Control ToolkitAPI
   02/06/2018: 04:30:01 Link R1 setting changed to   0.81 by Control ToolkitAPI
   02/06/2018: 04:30:01 Link R2 setting changed to   0.05 by Control ToolkitAPI
   02/06/2018: 04:30:01 Link R3 setting changed to   0.25 by Control ToolkitAPI
   02/06/2018: 04:30:01 Link R4 setting changed to   0.70 by Control ToolkitAPI
   02/06/2018: 04:30:01 Link R5 setting changed to   0.00 by Control ToolkitAPI
   02/06/2018: 04:30:01 Link R6 setting changed to   0.32 by Control ToolkitAPI
   02/06/2018: 04:45:01 Link R1 setting changed to   0.81 by Control ToolkitAPI
   02/06/2018: 04:45:01 Link R2 setting changed to   0.06 by Control ToolkitAPI
   02/06/2018: 04:45:01 Link R3 setting changed to   0.21 by Control ToolkitAPI
   02/06/2018: 04:45:01 Link R4 setting changed to   0.71 by Control ToolkitAPI
   02/06/2018: 04:45:01 Link R5 setting changed to   0.00 by Control ToolkitAPI
   02/06/2018: 04:45:01 Link R6 setting changed to   0.37 by Control ToolkitAPI
   02/06/2018: 05:00:01 Link R1 setting changed to   0.84 by Control ToolkitAPI
   02/06/2018: 05:00:01 Link R2 setting changed to   0.03 by Control ToolkitAPI
   02/06/2018: 05:00:01 Link R3 setting changed to   0.23 by Control ToolkitAPI
   02/06/2018: 05:00:01 Link R4 setting changed to   0.67 by Control ToolkitAPI
   02/06/2018: 05:00:01 Link R5 setting changed to   0.00 by Control ToolkitAPI
   02/06/2018: 05:00:01 Link R6 setting changed to   0.35 by Control ToolkitAPI
   02/06/2018: 05:15:01 Link R1 setting changed to   0.83 by Control ToolkitAPI
   02/06/2018: 05:15:01 Link R2 setting changed to   0.02 by Control ToolkitAPI
   02/06/2018: 05:15:01 Link R3 setting changed to   0.16 by Control ToolkitAPI
   02/06/2018: 05:15:01 Link R4 setting changed to   0.72 by Control ToolkitAPI
   02/06/2018: 05:15:01 Link R5 setting changed to   0.00 by Control ToolkitAPI
   02/06/2018: 05:15:01 Link R6 setting changed to   0.33 by Control ToolkitAPI
   02/06/2018: 05:30:01 Link R1 setting changed to   0.80 by Control ToolkitAPI
   02/06/2018: 05:30:01 Link R2 setting changed to   0.08 by Control ToolkitAPI
   02/06/2018: 05:30:01 Link R3 setting changed to   0.19 by Control ToolkitAPI
   02/06/2018: 05:30:01 Link R4 setting changed to   0.75 by Control ToolkitAPI
   02/06/2018: 05:30:01 Link R5 setting changed to   0.00 by Control ToolkitAPI
   02/06/2018: 05:30:01 Link R6 setting changed to   0.31 by Control ToolkitAPI
   02/06/2018: 05:45:01 Link R1 setting changed to   0.75 by Control ToolkitAPI
   02/06/2018: 05:45:01 Link R2 setting changed to   0.06 by Control ToolkitAPI
   02/06/2018: 05:45:01 Link R3 setting changed to   0.15 by Control ToolkitAPI
   02/06/2018: 05:45:01 Link R4 setting changed to   0.72 by Control ToolkitAPI
   02/06/2018: 05:45:01 Link R5 setting changed to   0.00 by Control ToolkitAPI
   02/06/2018: 05:45:01 Link R6 setting changed to   0.25 by Control ToolkitAPI
   02/06/2018: 06:00:01 Link R1 setting changed to   0.70 by Control ToolkitAPI
   02/06/2018: 06:00:01 Link R2 setting changed to   0.10 by Control ToolkitAPI
   02/06/2018: 06:00:01 Link R3 setting changed to   0.18 by Control ToolkitAPI
   02/06/2018: 06:00:01 Link R4 setting changed to   0.75 by Control ToolkitAPI
   02/06/2018: 06:00:01 Link R5 setting changed to   0.00 by Control ToolkitAPI
   02/06/2018: 06:00:01 Link R6 setting changed to   0.30 by Control ToolkitAPI
   02/06/2018: 06:15:01 Link R1 setting changed to   0.57 by Control ToolkitAPI
   02/06/2018: 06:15:01 Link R2 setting changed to   0.09 by Control ToolkitAPI
   02/06/2018: 06:15:01 Link R3 setting changed to   0.18 by Control ToolkitAPI
   02/06/2018: 06:15:01 Link R4 setting changed to   0.81 by Control ToolkitAPI
   02/06/2018: 06:15:01 Link R5 setting changed to   0.00 by Control ToolkitAPI
   02/06/2018: 06:15:01 Link R6 setting changed to   0.42 by Control ToolkitAPI
   02/06/2018: 06:30:01 Link R1 setting changed to   0.50 by Control ToolkitAPI
   02/06/2018: 06:30:01 Link R2 setting changed to   0.04 by Control ToolkitAPI
   02/06/2018: 06:30:01 Link R3 setting changed to   0.14 by Control ToolkitAPI
   02/06/2018: 06:30:01 Link R4 setting changed to   0.79 by Control ToolkitAPI
   02/06/2018: 06:30:01 Link R5 setting changed to   0.00 by Control ToolkitAPI
   02/06/2018: 06:30:01 Link R6 setting changed to   0.46 by Control ToolkitAPI
   02/06/2018: 06:45:01 Link R1 setting changed to   0.55 by Control ToolkitAPI
   02/06/2018: 06:45:01 Link R2 setting changed to   0.01 by Control ToolkitAPI
   02/06/2018: 06:45:01 Link R3 setting changed to   0.09 by Control ToolkitAPI
   02/06/2018: 06:45:01 Link R4 setting changed to   0.80 by Control ToolkitAPI
   02/06/2018: 06:45:01 Link R5 setting changed to   0.00 by Control ToolkitAPI
   02/06/2018: 06:45:01 Link R6 setting changed to   0.45 by Control ToolkitAPI
   02/06/2018: 07:00:01 Link R1 setting changed to   0.58 by Control ToolkitAPI
   02/06/2018: 07:00:01 Link R2 setting changed to   0.03 by Control ToolkitAPI
   02/06/2018: 07:00:01 Link R3 setting changed to   0.08 by Control ToolkitAPI
   02/06/2018: 07:00:01 Link R4 setting changed to   0.83 by Control ToolkitAPI
   02/06/2018: 07:00:01 Link R5 setting changed to   0.00 by Control ToolkitAPI
   02/06/2018: 07:00:01 Link R6 setting changed to   0.46 by Control ToolkitAPI
   02/06/2018: 07:15:01 Link R1 setting changed to   0.56 by Control ToolkitAPI
   02/06/2018: 07:15:01 Link R2 setting changed to   0.00 by Control ToolkitAPI
   02/06/2018: 07:15:01 Link R3 setting changed to   0.03 by Control ToolkitAPI
   02/06/2018: 07:15:01 Link R4 setting changed to   0.91 by Control ToolkitAPI
   02/06/2018: 07:15:01 Link R5 setting changed to   0.00 by Control ToolkitAPI
   02/06/2018: 07:15:01 Link R6 setting changed to   0.47 by Control ToolkitAPI
   02/06/2018: 07:30:01 Link R1 setting changed to   0.57 by Control ToolkitAPI
   02/06/2018: 07:30:01 Link R2 setting changed to   0.00 by Control ToolkitAPI
   02/06/2018: 07:30:01 Link R3 setting changed to   0.03 by Control ToolkitAPI
   02/06/2018: 07:30:01 Link R4 setting changed to   0.86 by Control ToolkitAPI
   02/06/2018: 07:30:01 Link R5 setting changed to   0.00 by Control ToolkitAPI
   02/06/2018: 07:30:01 Link R6 setting changed to   0.46 by Control ToolkitAPI
   02/06/2018: 07:45:01 Link R1 setting changed to   0.61 by Control ToolkitAPI
   02/06/2018: 07:45:01 Link R2 setting changed to   0.00 by Control ToolkitAPI
   02/06/2018: 07:45:01 Link R3 setting changed to   0.07 by Control ToolkitAPI
   02/06/2018: 07:45:01 Link R4 setting changed to   0.88 by Control ToolkitAPI
   02/06/2018: 07:45:01 Link R5 setting changed to   0.00 by Control ToolkitAPI
   02/06/2018: 07:45:01 Link R6 setting changed to   0.42 by Control ToolkitAPI
   02/06/2018: 08:00:01 Link R1 setting changed to   0.63 by Control ToolkitAPI
   02/06/2018: 08:00:01 Link R2 setting changed to   0.00 by Control ToolkitAPI
   02/06/2018: 08:00:01 Link R3 setting changed to   0.10 by Control ToolkitAPI
   02/06/2018: 08:00:01 Link R4 setting changed to   0.84 by Control ToolkitAPI
   02/06/2018: 08:00:01 Link R5 setting changed to   0.00 by Control ToolkitAPI
   02/06/2018: 08:00:01 Link R6 setting changed to   0.47 by Control ToolkitAPI
   02/06/2018: 08:15:01 Link R1 setting changed to   0.62 by Control ToolkitAPI
   02/06/2018: 08:15:01 Link R2 setting changed to   0.00 by Control ToolkitAPI
   02/06/2018: 08:15:01 Link R3 setting changed to   0.12 by Control ToolkitAPI
   02/06/2018: 08:15:01 Link R4 setting changed to   0.81 by Control ToolkitAPI
   02/06/2018: 08:15:01 Link R5 setting changed to   0.00 by Control ToolkitAPI
   02/06/2018: 08:15:01 Link R6 setting changed to   0.50 by Control ToolkitAPI
   02/06/2018: 08:30:01 Link R1 setting changed to   0.61 by Control ToolkitAPI
   02/06/2018: 08:30:01 Link R2 setting changed to   0.00 by Control ToolkitAPI
   02/06/2018: 08:30:01 Link R3 setting changed to   0.16 by Control ToolkitAPI
   02/06/2018: 08:30:01 Link R4 setting changed to   0.79 by Control ToolkitAPI
   02/06/2018: 08:30:01 Link R5 setting changed to   0.00 by Control ToolkitAPI
   02/06/2018: 08:30:01 Link R6 setting changed to   0.49 by Control ToolkitAPI
   02/06/2018: 08:45:01 Link R1 setting changed to   0.58 by Control ToolkitAPI
   02/06/2018: 08:45:01 Link R2 setting changed to   0.00 by Control ToolkitAPI
   02/06/2018: 08:45:01 Link R3 setting changed to   0.13 by Control ToolkitAPI
   02/06/2018: 08:45:01 Link R4 setting changed to   0.78 by Control ToolkitAPI
   02/06/2018: 08:45:01 Link R5 setting changed to   0.02 by Control ToolkitAPI
   02/06/2018: 08:45:01 Link R6 setting changed to   0.54 by Control ToolkitAPI
   02/06/2018: 09:00:01 Link R1 setting changed to   0.61 by Control ToolkitAPI
   02/06/2018: 09:00:01 Link R2 setting changed to   0.00 by Control ToolkitAPI
   02/06/2018: 09:00:01 Link R3 setting changed to   0.12 by Control ToolkitAPI
   02/06/2018: 09:00:01 Link R4 setting changed to   0.80 by Control ToolkitAPI
   02/06/2018: 09:00:01 Link R5 setting changed to   0.01 by Control ToolkitAPI
   02/06/2018: 09:00:01 Link R6 setting changed to   0.51 by Control ToolkitAPI
   02/06/2018: 09:15:01 Link R1 setting changed to   0.58 by Control ToolkitAPI
   02/06/2018: 09:15:01 Link R2 setting changed to   0.00 by Control ToolkitAPI
   02/06/2018: 09:15:01 Link R3 setting changed to   0.14 by Control ToolkitAPI
   02/06/2018: 09:15:01 Link R4 setting changed to   0.77 by Control ToolkitAPI
   02/06/2018: 09:15:01 Link R5 setting changed to   0.03 by Control ToolkitAPI
   02/06/2018: 09:15:01 Link R6 setting changed to   0.45 by Control ToolkitAPI
   02/06/2018: 09:30:01 Link R1 setting changed to   0.59 by Control ToolkitAPI
   02/06/2018: 09:30:01 Link R2 setting changed to   0.00 by Control ToolkitAPI
   02/06/2018: 09:30:01 Link R3 setting changed to   0.22 by Control ToolkitAPI
   02/06/2018: 09:30:01 Link R4 setting changed to   0.76 by Control ToolkitAPI
   02/06/2018: 09:30:01 Link R5 setting changed to   0.01 by Control ToolkitAPI
   02/06/2018: 09:30:01 Link R6 setting changed to   0.46 by Control ToolkitAPI
   02/06/2018: 09:45:01 Link R1 setting changed to   0.55 by Control ToolkitAPI
   02/06/2018: 09:45:01 Link R2 setting changed to   0.00 by Control ToolkitAPI
   02/06/2018: 09:45:01 Link R3 setting changed to   0.23 by Control ToolkitAPI
   02/06/2018: 09:45:01 Link R4 setting changed to   0.78 by Control ToolkitAPI
   02/06/2018: 09:45:01 Link R5 setting changed to   0.02 by Control ToolkitAPI
   02/06/2018: 09:45:01 Link R6 setting changed to   0.46 by Control ToolkitAPI
   02/06/2018: 10:00:01 Link R1 setting changed to   0.64 by Control ToolkitAPI
   02/06/2018: 10:00:01 Link R2 setting changed to   0.00 by Control ToolkitAPI
   02/06/2018: 10:00:01 Link R3 setting changed to   0.27 by Control ToolkitAPI
   02/06/2018: 10:00:01 Link R4 setting changed to   0.81 by Control ToolkitAPI
   02/06/2018: 10:00:01 Link R5 setting changed to   0.21 by Control ToolkitAPI
   02/06/2018: 10:00:01 Link R6 setting changed to   0.42 by Control ToolkitAPI
   02/06/2018: 10:15:01 Link R1 setting changed to   0.59 by Control ToolkitAPI
   02/06/2018: 10:15:01 Link R2 setting changed to   0.00 by Control ToolkitAPI
   02/06/2018: 10:15:01 Link R3 setting changed to   0.25 by Control ToolkitAPI
   02/06/2018: 10:15:01 Link R4 setting changed to   0.82 by Control ToolkitAPI
   02/06/2018: 10:15:01 Link R5 setting changed to   0.18 by Control ToolkitAPI
   02/06/2018: 10:15:01 Link R6 setting changed to   0.47 by Control ToolkitAPI
   02/06/2018: 10:30:01 Link R1 setting changed to   0.56 by Control ToolkitAPI
   02/06/2018: 10:30:01 Link R2 setting changed to   0.00 by Control ToolkitAPI
   02/06/2018: 10:30:01 Link R3 setting changed to   0.25 by Control ToolkitAPI
   02/06/2018: 10:30:01 Link R4 setting changed to   0.82 by Control ToolkitAPI
   02/06/2018: 10:30:01 Link R5 setting changed to   0.19 by Control ToolkitAPI
   02/06/2018: 10:30:01 Link R6 setting changed to   0.46 by Control ToolkitAPI
   02/06/2018: 10:45:01 Link R1 setting changed to   0.60 by Control ToolkitAPI
   02/06/2018: 10:45:01 Link R2 setting changed to   0.00 by Control ToolkitAPI
   02/06/2018: 10:45:01 Link R3 setting changed to   0.27 by Control ToolkitAPI
   02/06/2018: 10:45:01 Link R4 setting changed to   0.78 by Control ToolkitAPI
   02/06/2018: 10:45:01 Link R5 setting changed to   0.14 by Control ToolkitAPI
   02/06/2018: 10:45:01 Link R6 setting changed to   0.43 by Control ToolkitAPI
   02/06/2018: 11:00:01 Link R1 setting changed to   0.56 by Control ToolkitAPI
   02/06/2018: 11:00:01 Link R2 setting changed to   0.00 by Control ToolkitAPI
   02/06/2018: 11:00:01 Link R3 setting changed to   0.30 by Control ToolkitAPI
   02/06/2018: 11:00:01 Link R4 setting changed to   0.77 by Control ToolkitAPI
   02/06/2018: 11:00:01 Link R5 setting changed to   0.10 by Control ToolkitAPI
   02/06/2018: 11:00:01 Link R6 setting changed to   0.40 by Control ToolkitAPI
   02/06/2018: 11:15:01 Link R1 setting changed to   0.51 by Control ToolkitAPI
   02/06/2018: 11:15:01 Link R2 setting changed to   0.00 by Control ToolkitAPI
   02/06/2018: 11:15:01 Link R3 setting changed to   0.31 by Control ToolkitAPI
   02/06/2018: 11:15:01 Link R4 setting changed to   0.76 by Control ToolkitAPI
   02/06/2018: 11:15:01 Link R5 setting changed to   0.14 by Control ToolkitAPI
   02/06/2018: 11:15:01 Link R6 setting changed to   0.40 by Control ToolkitAPI
   02/06/2018: 11:30:01 Link R1 setting changed to   0.51 by Control ToolkitAPI
   02/06/2018: 11:30:01 Link R2 setting changed to   0.00 by Control ToolkitAPI
   02/06/2018: 11:30:01 Link R3 setting changed to   0.37 by Control ToolkitAPI
   02/06/2018: 11:30:01 Link R4 setting changed to   0.73 by Control ToolkitAPI
   02/06/2018: 11:30:01 Link R5 setting changed to   0.16 by Control ToolkitAPI
   02/06/2018: 11:30:01 Link R6 setting changed to   0.40 by Control ToolkitAPI
   02/06/2018: 11:45:01 Link R1 setting changed to   0.49 by Control ToolkitAPI
   02/06/2018: 11:45:01 Link R2 setting changed to   0.00 by Control ToolkitAPI
   02/06/2018: 11:45:01 Link R3 setting changed to   0.40 by Control ToolkitAPI
   02/06/2018: 11:45:01 Link R4 setting changed to   0.69 by Control ToolkitAPI
   02/06/2018: 11:45:01 Link R5 setting changed to   0.15 by Control ToolkitAPI
   02/06/2018: 11:45:01 Link R6 setting changed to   0.40 by Control ToolkitAPI
   02/06/2018: 12:00:01 Link R1 setting changed to   0.44 by Control ToolkitAPI
   02/06/2018: 12:00:01 Link R2 setting changed to   0.00 by Control ToolkitAPI
   02/06/2018: 12:00:01 Link R3 setting changed to   0.36 by Control ToolkitAPI
   02/06/2018: 12:00:01 Link R4 setting changed to   0.72 by Control ToolkitAPI
   02/06/2018: 12:00:01 Link R5 setting changed to   0.13 by Control ToolkitAPI
   02/06/2018: 12:00:01 Link R6 setting changed to   0.38 by Control ToolkitAPI
   02/06/2018: 12:15:01 Link R1 setting changed to   0.39 by Control ToolkitAPI
   02/06/2018: 12:15:01 Link R2 setting changed to   0.00 by Control ToolkitAPI
   02/06/2018: 12:15:01 Link R3 setting changed to   0.34 by Control ToolkitAPI
   02/06/2018: 12:15:01 Link R4 setting changed to   0.72 by Control ToolkitAPI
   02/06/2018: 12:15:01 Link R5 setting changed to   0.13 by Control ToolkitAPI
   02/06/2018: 12:15:01 Link R6 setting changed to   0.37 by Control ToolkitAPI
   02/06/2018: 12:30:01 Link R1 setting changed to   0.39 by Control ToolkitAPI
   02/06/2018: 12:30:01 Link R2 setting changed to   0.00 by Control ToolkitAPI
   02/06/2018: 12:30:01 Link R3 setting changed to   0.36 by Control ToolkitAPI
   02/06/2018: 12:30:01 Link R4 setting changed to   0.73 by Control ToolkitAPI
   02/06/2018: 12:30:01 Link R5 setting changed to   0.11 by Control ToolkitAPI
   02/06/2018: 12:30:01 Link R6 setting changed to   0.34 by Control ToolkitAPI
   02/06/2018: 12:45:01 Link R1 setting changed to   0.37 by Control ToolkitAPI
   02/06/2018: 12:45:01 Link R2 setting changed to   0.00 by Control ToolkitAPI
   02/06/2018: 12:45:01 Link R3 setting changed to   0.34 by Control ToolkitAPI
   02/06/2018: 12:45:01 Link R4 setting changed to   0.71 by Control ToolkitAPI
   02/06/2018: 12:45:01 Link R5 setting changed to   0.09 by Control ToolkitAPI
   02/06/2018: 12:45:01 Link R6 setting changed to   0.29 by Control ToolkitAPI
   02/06/2018: 13:00:01 Link R1 setting changed to   0.36 by Control ToolkitAPI
   02/06/2018: 13:00:01 Link R2 setting changed to   0.00 by Control ToolkitAPI
   02/06/2018: 13:00:01 Link R3 setting changed to   0.32 by Control ToolkitAPI
   02/06/2018: 13:00:01 Link R4 setting changed to   0.67 by Control ToolkitAPI
   02/06/2018: 13:00:01 Link R5 setting changed to   0.09 by Control ToolkitAPI
   02/06/2018: 13:00:01 Link R6 setting changed to   0.29 by Control ToolkitAPI
   02/06/2018: 13:15:01 Link R1 setting changed to   0.44 by Control ToolkitAPI
   02/06/2018: 13:15:01 Link R2 setting changed to   0.00 by Control ToolkitAPI
   02/06/2018: 13:15:01 Link R3 setting changed to   0.33 by Control ToolkitAPI
   02/06/2018: 13:15:01 Link R4 setting changed to   0.65 by Control ToolkitAPI
   02/06/2018: 13:15:01 Link R5 setting changed to   0.12 by Control ToolkitAPI
   02/06/2018: 13:15:01 Link R6 setting changed to   0.29 by Control ToolkitAPI
   02/06/2018: 13:30:01 Link R1 setting changed to   0.40 by Control ToolkitAPI
   02/06/2018: 13:30:01 Link R2 setting changed to   0.00 by Control ToolkitAPI
   02/06/2018: 13:30:01 Link R3 setting changed to   0.39 by Control ToolkitAPI
   02/06/2018: 13:30:01 Link R4 setting changed to   0.66 by Control ToolkitAPI
   02/06/2018: 13:30:01 Link R5 setting changed to   0.10 by Control ToolkitAPI
   02/06/2018: 13:30:01 Link R6 setting changed to   0.31 by Control ToolkitAPI
   02/06/2018: 13:45:01 Link R1 setting changed to   0.38 by Control ToolkitAPI
   02/06/2018: 13:45:01 Link R2 setting changed to   0.00 by Control ToolkitAPI
   02/06/2018: 13:45:01 Link R3 setting changed to   0.43 by Control ToolkitAPI
   02/06/2018: 13:45:01 Link R4 setting changed to   0.63 by Control ToolkitAPI
   02/06/2018: 13:45:01 Link R5 setting changed to   0.09 by Control ToolkitAPI
   02/06/2018: 13:45:01 Link R6 setting changed to   0.28 by Control ToolkitAPI
   02/06/2018: 14:00:01 Link R1 setting changed to   0.42 by Control ToolkitAPI
   02/06/2018: 14:00:01 Link R2 setting changed to   0.00 by Control ToolkitAPI
   02/06/2018: 14:00:01 Link R3 setting changed to   0.42 by Control ToolkitAPI
   02/06/2018: 14:00:01 Link R4 setting changed to   0.61 by Control ToolkitAPI
   02/06/2018: 14:00:01 Link R5 setting changed to   0.07 by Control ToolkitAPI
   02/06/2018: 14:00:01 Link R6 setting changed to   0.29 by Control ToolkitAPI
   02/06/2018: 14:15:01 Link R1 setting changed to   0.44 by Control ToolkitAPI
   02/06/2018: 14:15:01 Link R2 setting changed to   0.00 by Control ToolkitAPI
   02/06/2018: 14:15:01 Link R3 setting changed to   0.41 by Control ToolkitAPI
   02/06/2018: 14:15:01 Link R4 setting changed to   0.62 by Control ToolkitAPI
   02/06/2018: 14:15:01 Link R5 setting changed to   0.06 by Control ToolkitAPI
   02/06/2018: 14:15:01 Link R6 setting changed to   0.33 by Control ToolkitAPI
   02/06/2018: 14:30:01 Link R1 setting changed to   0.46 by Control ToolkitAPI
   02/06/2018: 14:30:01 Link R2 setting changed to   0.03 by Control ToolkitAPI
   02/06/2018: 14:30:01 Link R3 setting changed to   0.39 by Control ToolkitAPI
   02/06/2018: 14:30:01 Link R4 setting changed to   0.69 by Control ToolkitAPI
   02/06/2018: 14:30:01 Link R5 setting changed to   0.04 by Control ToolkitAPI
   02/06/2018: 14:30:01 Link R6 setting changed to   0.34 by Control ToolkitAPI
   02/06/2018: 14:45:01 Link R1 setting changed to   0.49 by Control ToolkitAPI
   02/06/2018: 14:45:01 Link R2 setting changed to   0.00 by Control ToolkitAPI
   02/06/2018: 14:45:01 Link R3 setting changed to   0.38 by Control ToolkitAPI
   02/06/2018: 14:45:01 Link R4 setting changed to   0.65 by Control ToolkitAPI
   02/06/2018: 14:45:01 Link R5 setting changed to   0.01 by Control ToolkitAPI
   02/06/2018: 14:45:01 Link R6 setting changed to   0.32 by Control ToolkitAPI
   02/06/2018: 15:00:01 Link R1 setting changed to   0.48 by Control ToolkitAPI
   02/06/2018: 15:00:01 Link R2 setting changed to   0.00 by Control ToolkitAPI
   02/06/2018: 15:00:01 Link R3 setting changed to   0.38 by Control ToolkitAPI
   02/06/2018: 15:00:01 Link R4 setting changed to   0.68 by Control ToolkitAPI
   02/06/2018: 15:00:01 Link R5 setting changed to   0.02 by Control ToolkitAPI
   02/06/2018: 15:00:01 Link R6 setting changed to   0.35 by Control ToolkitAPI
   02/06/2018: 15:15:01 Link R1 setting changed to   0.50 by Control ToolkitAPI
   02/06/2018: 15:15:01 Link R2 setting changed to   0.00 by Control ToolkitAPI
   02/06/2018: 15:15:01 Link R3 setting changed to   0.38 by Control ToolkitAPI
   02/06/2018: 15:15:01 Link R4 setting changed to   0.72 by Control ToolkitAPI
   02/06/2018: 15:15:01 Link R5 setting changed to   0.03 by Control ToolkitAPI
   02/06/2018: 15:15:01 Link R6 setting changed to   0.34 by Control ToolkitAPI
   02/06/2018: 15:30:01 Link R1 setting changed to   0.48 by Control ToolkitAPI
   02/06/2018: 15:30:01 Link R2 setting changed to   0.00 by Control ToolkitAPI
   02/06/2018: 15:30:01 Link R3 setting changed to   0.36 by Control ToolkitAPI
   02/06/2018: 15:30:01 Link R4 setting changed to   0.73 by Control ToolkitAPI
   02/06/2018: 15:30:01 Link R5 setting changed to   0.00 by Control ToolkitAPI
   02/06/2018: 15:30:01 Link R6 setting changed to   0.34 by Control ToolkitAPI
   02/06/2018: 15:45:01 Link R1 setting changed to   0.55 by Control ToolkitAPI
   02/06/2018: 15:45:01 Link R2 setting changed to   0.00 by Control ToolkitAPI
   02/06/2018: 15:45:01 Link R3 setting changed to   0.35 by Control ToolkitAPI
   02/06/2018: 15:45:01 Link R4 setting changed to   0.71 by Control ToolkitAPI
   02/06/2018: 15:45:01 Link R5 setting changed to   0.00 by Control ToolkitAPI
   02/06/2018: 15:45:01 Link R6 setting changed to   0.29 by Control ToolkitAPI
   02/06/2018: 16:00:01 Link R1 setting changed to   0.54 by Control ToolkitAPI
   02/06/2018: 16:00:01 Link R2 setting changed to   0.00 by Control ToolkitAPI
   02/06/2018: 16:00:01 Link R3 setting changed to   0.35 by Control ToolkitAPI
   02/06/2018: 16:00:01 Link R4 setting changed to   0.70 by Control ToolkitAPI
   02/06/2018: 16:00:01 Link R5 setting changed to   0.02 by Control ToolkitAPI
   02/06/2018: 16:00:01 Link R6 setting changed to   0.30 by Control ToolkitAPI
   02/06/2018: 16:15:01 Link R1 setting changed to   0.53 by Control ToolkitAPI
   02/06/2018: 16:15:01 Link R2 setting changed to   0.00 by Control ToolkitAPI
   02/06/2018: 16:15:01 Link R3 setting changed to   0.28 by Control ToolkitAPI
   02/06/2018: 16:15:01 Link R4 setting changed to   0.69 by Control ToolkitAPI
   02/06/2018: 16:15:01 Link R5 setting changed to   0.00 by Control ToolkitAPI
   02/06/2018: 16:15:01 Link R6 setting changed to   0.27 by Control ToolkitAPI
   02/06/2018: 16:30:01 Link R1 setting changed to   0.59 by Control ToolkitAPI
   02/06/2018: 16:30:01 Link R2 setting changed to   0.00 by Control ToolkitAPI
   02/06/2018: 16:30:01 Link R3 setting changed to   0.24 by Control ToolkitAPI
   02/06/2018: 16:30:01 Link R4 setting changed to   0.66 by Control ToolkitAPI
   02/06/2018: 16:30:01 Link R5 setting changed to   0.04 by Control ToolkitAPI
   02/06/2018: 16:30:01 Link R6 setting changed to   0.24 by Control ToolkitAPI
   02/06/2018: 16:45:01 Link R1 setting changed to   0.64 by Control ToolkitAPI
   02/06/2018: 16:45:01 Link R2 setting changed to   0.00 by Control ToolkitAPI
   02/06/2018: 16:45:01 Link R3 setting changed to   0.25 by Control ToolkitAPI
   02/06/2018: 16:45:01 Link R4 setting changed to   0.64 by Control ToolkitAPI
   02/06/2018: 16:45:01 Link R5 setting changed to   0.08 by Control ToolkitAPI
   02/06/2018: 16:45:01 Link R6 setting changed to   0.27 by Control ToolkitAPI
   02/06/2018: 17:00:01 Link R1 setting changed to   0.66 by Control ToolkitAPI
   02/06/2018: 17:00:01 Link R2 setting changed to   0.00 by Control ToolkitAPI
   02/06/2018: 17:00:01 Link R3 setting changed to   0.27 by Control ToolkitAPI
   02/06/2018: 17:00:01 Link R4 setting changed to   0.61 by Control ToolkitAPI
   02/06/2018: 17:00:01 Link R5 setting changed to   0.10 by Control ToolkitAPI
   02/06/2018: 17:00:01 Link R6 setting changed to   0.25 by Control ToolkitAPI
   02/06/2018: 17:15:01 Link R1 setting changed to   0.64 by Control ToolkitAPI
   02/06/2018: 17:15:01 Link R2 setting changed to   0.00 by Control ToolkitAPI
   02/06/2018: 17:15:01 Link R3 setting changed to   0.27 by Control ToolkitAPI
   02/06/2018: 17:15:01 Link R4 setting changed to   0.61 by Control ToolkitAPI
   02/06/2018: 17:15:01 Link R5 setting changed to   0.17 by Control ToolkitAPI
   02/06/2018: 17:15:01 Link R6 setting changed to   0.21 by Control ToolkitAPI
   02/06/2018: 17:30:01 Link R1 setting changed to   0.61 by Control ToolkitAPI
   02/06/2018: 17:30:01 Link R2 setting changed to   0.00 by Control ToolkitAPI
   02/06/2018: 17:30:01 Link R3 setting changed to   0.35 by Control ToolkitAPI
   02/06/2018: 17:30:01 Link R4 setting changed to   0.60 by Control ToolkitAPI
   02/06/2018: 17:30:01 Link R5 setting changed to   0.19 by Control ToolkitAPI
   02/06/2018: 17:30:01 Link R6 setting changed to   0.26 by Control ToolkitAPI
   02/06/2018: 17:45:01 Link R1 setting changed to   0.63 by Control ToolkitAPI
   02/06/2018: 17:45:01 Link R2 setting changed to   0.00 by Control ToolkitAPI
   02/06/2018: 17:45:01 Link R3 setting changed to   0.37 by Control ToolkitAPI
   02/06/2018: 17:45:01 Link R4 setting changed to   0.63 by Control ToolkitAPI
   02/06/2018: 17:45:01 Link R5 setting changed to   0.20 by Control ToolkitAPI
   02/06/2018: 17:45:01 Link R6 setting changed to   0.31 by Control ToolkitAPI
   02/06/2018: 18:00:01 Link R1 setting changed to   0.61 by Control ToolkitAPI
   02/06/2018: 18:00:01 Link R2 setting changed to   0.00 by Control ToolkitAPI
   02/06/2018: 18:00:01 Link R3 setting changed to   0.35 by Control ToolkitAPI
   02/06/2018: 18:00:01 Link R4 setting changed to   0.58 by Control ToolkitAPI
   02/06/2018: 18:00:01 Link R5 setting changed to   0.21 by Control ToolkitAPI
   02/06/2018: 18:00:01 Link R6 setting changed to   0.34 by Control ToolkitAPI
   02/06/2018: 18:15:01 Link R1 setting changed to   0.65 by Control ToolkitAPI
   02/06/2018: 18:15:01 Link R2 setting changed to   0.00 by Control ToolkitAPI
   02/06/2018: 18:15:01 Link R3 setting changed to   0.42 by Control ToolkitAPI
   02/06/2018: 18:15:01 Link R4 setting changed to   0.58 by Control ToolkitAPI
   02/06/2018: 18:15:01 Link R5 setting changed to   0.21 by Control ToolkitAPI
   02/06/2018: 18:15:01 Link R6 setting changed to   0.31 by Control ToolkitAPI
   02/06/2018: 18:30:01 Link R1 setting changed to   0.66 by Control ToolkitAPI
   02/06/2018: 18:30:01 Link R2 setting changed to   0.00 by Control ToolkitAPI
   02/06/2018: 18:30:01 Link R3 setting changed to   0.41 by Control ToolkitAPI
   02/06/2018: 18:30:01 Link R4 setting changed to   0.56 by Control ToolkitAPI
   02/06/2018: 18:30:01 Link R5 setting changed to   0.20 by Control ToolkitAPI
   02/06/2018: 18:30:01 Link R6 setting changed to   0.35 by Control ToolkitAPI
   02/06/2018: 18:45:01 Link R1 setting changed to   0.66 by Control ToolkitAPI
   02/06/2018: 18:45:01 Link R2 setting changed to   0.00 by Control ToolkitAPI
   02/06/2018: 18:45:01 Link R3 setting changed to   0.42 by Control ToolkitAPI
   02/06/2018: 18:45:01 Link R4 setting changed to   0.57 by Control ToolkitAPI
   02/06/2018: 18:45:01 Link R5 setting changed to   0.17 by Control ToolkitAPI
   02/06/2018: 18:45:01 Link R6 setting changed to   0.36 by Control ToolkitAPI
   02/06/2018: 19:00:01 Link R1 setting changed to   0.70 by Control ToolkitAPI
   02/06/2018: 19:00:01 Link R2 setting changed to   0.00 by Control ToolkitAPI
   02/06/2018: 19:00:01 Link R3 setting changed to   0.41 by Control ToolkitAPI
   02/06/2018: 19:00:01 Link R4 setting changed to   0.60 by Control ToolkitAPI
   02/06/2018: 19:00:01 Link R5 setting changed to   0.16 by Control ToolkitAPI
   02/06/2018: 19:00:01 Link R6 setting changed to   0.32 by Control ToolkitAPI
   02/06/2018: 19:15:01 Link R1 setting changed to   0.71 by Control ToolkitAPI
   02/06/2018: 19:15:01 Link R2 setting changed to   0.00 by Control ToolkitAPI
   02/06/2018: 19:15:01 Link R3 setting changed to   0.42 by Control ToolkitAPI
   02/06/2018: 19:15:01 Link R4 setting changed to   0.66 by Control ToolkitAPI
   02/06/2018: 19:15:01 Link R5 setting changed to   0.16 by Control ToolkitAPI
   02/06/2018: 19:15:01 Link R6 setting changed to   0.34 by Control ToolkitAPI
   02/06/2018: 19:30:01 Link R1 setting changed to   0.68 by Control ToolkitAPI
   02/06/2018: 19:30:01 Link R2 setting changed to   0.00 by Control ToolkitAPI
   02/06/2018: 19:30:01 Link R3 setting changed to   0.39 by Control ToolkitAPI
   02/06/2018: 19:30:01 Link R4 setting changed to   0.68 by Control ToolkitAPI
   02/06/2018: 19:30:01 Link R5 setting changed to   0.14 by Control ToolkitAPI
   02/06/2018: 19:30:01 Link R6 setting changed to   0.35 by Control ToolkitAPI
   02/06/2018: 19:45:01 Link R1 setting changed to   0.74 by Control ToolkitAPI
   02/06/2018: 19:45:01 Link R2 setting changed to   0.00 by Control ToolkitAPI
   02/06/2018: 19:45:01 Link R3 setting changed to   0.41 by Control ToolkitAPI
   02/06/2018: 19:45:01 Link R4 setting changed to   0.73 by Control ToolkitAPI
   02/06/2018: 19:45:01 Link R5 setting changed to   0.12 by Control ToolkitAPI
   02/06/2018: 19:45:01 Link R6 setting changed to   0.34 by Control ToolkitAPI
   02/06/2018: 20:00:01 Link R1 setting changed to   0.72 by Control ToolkitAPI
   02/06/2018: 20:00:01 Link R2 setting changed to   0.00 by Control ToolkitAPI
   02/06/2018: 20:00:01 Link R3 setting changed to   0.38 by Control ToolkitAPI
   02/06/2018: 20:00:01 Link R4 setting changed to   0.75 by Control ToolkitAPI
   02/06/2018: 20:00:01 Link R5 setting changed to   0.16 by Control ToolkitAPI
   02/06/2018: 20:00:01 Link R6 setting changed to   0.37 by Control ToolkitAPI
   02/06/2018: 20:15:01 Link R1 setting changed to   0.72 by Control ToolkitAPI
   02/06/2018: 20:15:01 Link R2 setting changed to   0.00 by Control ToolkitAPI
   02/06/2018: 20:15:01 Link R3 setting changed to   0.43 by Control ToolkitAPI
   02/06/2018: 20:15:01 Link R4 setting changed to   0.76 by Control ToolkitAPI
   02/06/2018: 20:15:01 Link R5 setting changed to   0.16 by Control ToolkitAPI
   02/06/2018: 20:15:01 Link R6 setting changed to   0.37 by Control ToolkitAPI
   02/06/2018: 20:30:01 Link R1 setting changed to   0.73 by Control ToolkitAPI
   02/06/2018: 20:30:01 Link R2 setting changed to   0.00 by Control ToolkitAPI
   02/06/2018: 20:30:01 Link R3 setting changed to   0.39 by Control ToolkitAPI
   02/06/2018: 20:30:01 Link R4 setting changed to   0.77 by Control ToolkitAPI
   02/06/2018: 20:30:01 Link R5 setting changed to   0.18 by Control ToolkitAPI
   02/06/2018: 20:30:01 Link R6 setting changed to   0.37 by Control ToolkitAPI
   02/06/2018: 20:45:01 Link R1 setting changed to   0.80 by Control ToolkitAPI
   02/06/2018: 20:45:01 Link R2 setting changed to   0.00 by Control ToolkitAPI
   02/06/2018: 20:45:01 Link R3 setting changed to   0.44 by Control ToolkitAPI
   02/06/2018: 20:45:01 Link R4 setting changed to   0.73 by Control ToolkitAPI
   02/06/2018: 20:45:01 Link R5 setting changed to   0.18 by Control ToolkitAPI
   02/06/2018: 20:45:01 Link R6 setting changed to   0.36 by Control ToolkitAPI
   02/06/2018: 21:00:01 Link R1 setting changed to   0.80 by Control ToolkitAPI
   02/06/2018: 21:00:01 Link R2 setting changed to   0.00 by Control ToolkitAPI
   02/06/2018: 21:00:01 Link R3 setting changed to   0.49 by Control ToolkitAPI
   02/06/2018: 21:00:01 Link R4 setting changed to   0.75 by Control ToolkitAPI
   02/06/2018: 21:00:01 Link R5 setting changed to   0.15 by Control ToolkitAPI
   02/06/2018: 21:00:01 Link R6 setting changed to   0.39 by Control ToolkitAPI
   02/06/2018: 21:15:01 Link R1 setting changed to   0.80 by Control ToolkitAPI
   02/06/2018: 21:15:01 Link R2 setting changed to   0.00 by Control ToolkitAPI
   02/06/2018: 21:15:01 Link R3 setting changed to   0.49 by Control ToolkitAPI
   02/06/2018: 21:15:01 Link R4 setting changed to   0.71 by Control ToolkitAPI
   02/06/2018: 21:15:01 Link R5 setting changed to   0.16 by Control ToolkitAPI
   02/06/2018: 21:15:01 Link R6 setting changed to   0.44 by Control ToolkitAPI
   02/06/2018: 21:30:01 Link R1 setting changed to   0.81 by Control ToolkitAPI
   02/06/2018: 21:30:01 Link R2 setting changed to   0.00 by Control ToolkitAPI
   02/06/2018: 21:30:01 Link R3 setting changed to   0.53 by Control ToolkitAPI
   02/06/2018: 21:30:01 Link R4 setting changed to   0.73 by Control ToolkitAPI
   02/06/2018: 21:30:01 Link R5 setting changed to   0.18 by Control ToolkitAPI
   02/06/2018: 21:30:01 Link R6 setting changed to   0.47 by Control ToolkitAPI
   02/06/2018: 21:45:01 Link R1 setting changed to   0.82 by Control ToolkitAPI
   02/06/2018: 21:45:01 Link R2 setting changed to   0.00 by Control ToolkitAPI
   02/06/2018: 21:45:01 Link R3 setting changed to   0.54 by Control ToolkitAPI
   02/06/2018: 21:45:01 Link R4 setting changed to   0.71 by Control ToolkitAPI
   02/06/2018: 21:45:01 Link R5 setting changed to   0.18 by Control ToolkitAPI
   02/06/2018: 21:45:01 Link R6 setting changed to   0.49 by Control ToolkitAPI
   02/06/2018: 22:00:01 Link R1 setting changed to   0.86 by Control ToolkitAPI
   02/06/2018: 22:00:01 Link R2 setting changed to   0.00 by Control ToolkitAPI
   02/06/2018: 22:00:01 Link R3 setting changed to   0.52 by Control ToolkitAPI
   02/06/2018: 22:00:01 Link R4 setting changed to   0.73 by Control ToolkitAPI
   02/06/2018: 22:00:01 Link R5 setting changed to   0.14 by Control ToolkitAPI
   02/06/2018: 22:00:01 Link R6 setting changed to   0.50 by Control ToolkitAPI
   02/06/2018: 22:15:01 Link R1 setting changed to   0.85 by Control ToolkitAPI
   02/06/2018: 22:15:01 Link R2 setting changed to   0.00 by Control ToolkitAPI
   02/06/2018: 22:15:01 Link R3 setting changed to   0.58 by Control ToolkitAPI
   02/06/2018: 22:15:01 Link R4 setting changed to   0.75 by Control ToolkitAPI
   02/06/2018: 22:15:01 Link R5 setting changed to   0.13 by Control ToolkitAPI
   02/06/2018: 22:15:01 Link R6 setting changed to   0.54 by Control ToolkitAPI
   02/06/2018: 22:30:01 Link R1 setting changed to   0.84 by Control ToolkitAPI
   02/06/2018: 22:30:01 Link R2 setting changed to   0.00 by Control ToolkitAPI
   02/06/2018: 22:30:01 Link R3 setting changed to   0.60 by Control ToolkitAPI
   02/06/2018: 22:30:01 Link R4 setting changed to   0.82 by Control ToolkitAPI
   02/06/2018: 22:30:01 Link R5 setting changed to   0.10 by Control ToolkitAPI
   02/06/2018: 22:30:01 Link R6 setting changed to   0.58 by Control ToolkitAPI
   02/06/2018: 22:45:01 Link R1 setting changed to   0.83 by Control ToolkitAPI
   02/06/2018: 22:45:01 Link R2 setting changed to   0.00 by Control ToolkitAPI
   02/06/2018: 22:45:01 Link R3 setting changed to   0.62 by Control ToolkitAPI
   02/06/2018: 22:45:01 Link R4 setting changed to   0.79 by Control ToolkitAPI
   02/06/2018: 22:45:01 Link R5 setting changed to   0.12 by Control ToolkitAPI
   02/06/2018: 22:45:01 Link R6 setting changed to   0.60 by Control ToolkitAPI
   02/06/2018: 23:00:01 Link R1 setting changed to   0.81 by Control ToolkitAPI
   02/06/2018: 23:00:01 Link R2 setting changed to   0.00 by Control ToolkitAPI
   02/06/2018: 23:00:01 Link R3 setting changed to   0.65 by Control ToolkitAPI
   02/06/2018: 23:00:01 Link R4 setting changed to   0.79 by Control ToolkitAPI
   02/06/2018: 23:00:01 Link R5 setting changed to   0.08 by Control ToolkitAPI
   02/06/2018: 23:00:01 Link R6 setting changed to   0.64 by Control ToolkitAPI
   02/06/2018: 23:15:01 Link R1 setting changed to   0.83 by Control ToolkitAPI
   02/06/2018: 23:15:01 Link R2 setting changed to   0.00 by Control ToolkitAPI
   02/06/2018: 23:15:01 Link R3 setting changed to   0.60 by Control ToolkitAPI
   02/06/2018: 23:15:01 Link R4 setting changed to   0.79 by Control ToolkitAPI
   02/06/2018: 23:15:01 Link R5 setting changed to   0.14 by Control ToolkitAPI
   02/06/2018: 23:15:01 Link R6 setting changed to   0.64 by Control ToolkitAPI
   02/06/2018: 23:30:01 Link R1 setting changed to   0.84 by Control ToolkitAPI
   02/06/2018: 23:30:01 Link R2 setting changed to   0.00 by Control ToolkitAPI
   02/06/2018: 23:30:01 Link R3 setting changed to   0.61 by Control ToolkitAPI
   02/06/2018: 23:30:01 Link R4 setting changed to   0.83 by Control ToolkitAPI
   02/06/2018: 23:30:01 Link R5 setting changed to   0.11 by Control ToolkitAPI
   02/06/2018: 23:30:01 Link R6 setting changed to   0.63 by Control ToolkitAPI

  
  ********************
  Subcatchment Results
  ********************
  
  <<< Subcatchment S1 >>>
  ---------------------------------------------------
  Date        Time        Precip.    Losses    Runoff
                            in/hr     in/hr       CFS
  ---------------------------------------------------
   02/06/2018 00:01:00      0.000     0.000    0.0000
   02/06/2018 00:02:00      0.000     0.000    0.0000
   02/06/2018 00:03:00      0.000     0.000    0.0000
   02/06/2018 00:04:00      0.000     0.000    0.0000
   02/06/2018 00:05:00      0.000     0.000    0.0000
   02/06/2018 00:06:00      0.066     0.046    0.0000
   02/06/2018 00:07:00      0.066     0.046    0.0000
   02/06/2018 00:08:00      0.066     0.046    0.0000
   02/06/2018 00:09:00      0.066     0.046    0.0000
   02/06/2018 00:10:00      0.066     0.046    0.0000
   02/06/2018 00:11:00      0.066     0.046    0.0000
   02/06/2018 00:12:00      0.067     0.047    0.0000
   02/06/2018 00:13:00      0.067     0.047    0.0000
   02/06/2018 00:14:00      0.067     0.047    0.0000
   02/06/2018 00:15:00      0.067     0.047    0.0000
   02/06/2018 00:16:00      0.067     0.047    0.0000
   02/06/2018 00:17:00      0.067     0.047    0.0000
   02/06/2018 00:18:00      0.068     0.047    0.0000
   02/06/2018 00:19:00      0.068     0.047    0.0000
   02/06/2018 00:20:00      0.068     0.047    0.0000
   02/06/2018 00:21:00      0.068     0.047    0.0000
   02/06/2018 00:22:00      0.068     0.047    0.0000
   02/06/2018 00:23:00      0.068     0.047    0.0736
   02/06/2018 00:24:00      0.068     0.048    0.0799
   02/06/2018 00:25:00      0.068     0.048    0.0865
   02/06/2018 00:26:00      0.068     0.048    0.0930
   02/06/2018 00:27:00      0.068     0.048    0.0996
   02/06/2018 00:28:00      0.068     0.048    0.1062
   02/06/2018 00:29:00      0.068     0.048    0.1127
   02/06/2018 00:30:00      0.069     0.048    0.1193
   02/06/2018 00:31:00      0.069     0.048    0.1258
   02/06/2018 00:32:00      0.069     0.048    0.1323
   02/06/2018 00:33:00      0.069     0.048    0.1388
   02/06/2018 00:34:00      0.069     0.048    0.1453
   02/06/2018 00:35:00      0.069     0.048    0.1518
   02/06/2018 00:36:00      0.070     0.049    0.1582
   02/06/2018 00:37:00      0.070     0.049    0.1643
   02/06/2018 00:38:00      0.070     0.049    0.1704
   02/06/2018 00:39:00      0.070     0.049    0.1766
   02/06/2018 00:40:00      0.070     0.049    0.1827
   02/06/2018 00:41:00      0.070     0.049    0.1888
   02/06/2018 00:42:00      0.071     0.049    0.1946
   02/06/2018 00:43:00      0.071     0.049    0.2002
   02/06/2018 00:44:00      0.071     0.049    0.2057
   02/06/2018 00:45:00      0.071     0.049    0.2113
   02/06/2018 00:46:00      0.071     0.049    0.2169
   02/06/2018 00:47:00      0.071     0.049    0.2224
   02/06/2018 00:48:00      0.071     0.050    0.2276
   02/06/2018 00:49:00      0.071     0.050    0.2361
   02/06/2018 00:50:00      0.071     0.050    0.2446
   02/06/2018 00:51:00      0.071     0.050    0.2531
   02/06/2018 00:52:00      0.071     0.050    0.2616
   02/06/2018 00:53:00      0.071     0.050    0.2700
   02/06/2018 00:54:00      0.072     0.051    0.2845
   02/06/2018 00:55:00      0.072     0.051    0.3028
   02/06/2018 00:56:00      0.072     0.051    0.3211
   02/06/2018 00:57:00      0.072     0.051    0.3395
   02/06/2018 00:58:00      0.072     0.051    0.3578
   02/06/2018 00:59:00      0.072     0.051    0.3762
   02/06/2018 01:00:00      0.073     0.051    0.3972
   02/06/2018 01:01:00      0.073     0.051    0.4203
   02/06/2018 01:02:00      0.073     0.051    0.4433
   02/06/2018 01:03:00      0.073     0.051    0.4664
   02/06/2018 01:04:00      0.073     0.051    0.4894
   02/06/2018 01:05:00      0.073     0.051    0.5125
   02/06/2018 01:06:00      0.074     0.052    0.5365
   02/06/2018 01:07:00      0.074     0.052    0.5613
   02/06/2018 01:08:00      0.074     0.052    0.5860
   02/06/2018 01:09:00      0.074     0.052    0.6107
   02/06/2018 01:10:00      0.074     0.052    0.6355
   02/06/2018 01:11:00      0.074     0.052    0.6602
   02/06/2018 01:12:00      0.074     0.052    0.6848
   02/06/2018 01:13:00      0.074     0.052    0.7092
   02/06/2018 01:14:00      0.074     0.052    0.7336
   02/06/2018 01:15:00      0.074     0.052    0.7580
   02/06/2018 01:16:00      0.074     0.052    0.7824
   02/06/2018 01:17:00      0.074     0.052    0.8068
   02/06/2018 01:18:00      0.075     0.053    0.8303
   02/06/2018 01:19:00      0.075     0.053    0.8531
   02/06/2018 01:20:00      0.075     0.053    0.8759
   02/06/2018 01:21:00      0.075     0.053    0.8987
   02/06/2018 01:22:00      0.075     0.053    0.9215
   02/06/2018 01:23:00      0.075     0.053    0.9443
   02/06/2018 01:24:00      0.076     0.053    0.9658
   02/06/2018 01:25:00      0.076     0.053    0.9863
   02/06/2018 01:26:00      0.076     0.053    1.0068
   02/06/2018 01:27:00      0.076     0.053    1.0273
   02/06/2018 01:28:00      0.076     0.053    1.0478
   02/06/2018 01:29:00      0.076     0.053    1.0683
   02/06/2018 01:30:00      0.077     0.054    1.0873
   02/06/2018 01:31:00      0.077     0.054    1.1053
   02/06/2018 01:32:00      0.077     0.054    1.1233
   02/06/2018 01:33:00      0.077     0.054    1.1413
   02/06/2018 01:34:00      0.077     0.054    1.1593
   02/06/2018 01:35:00      0.077     0.054    1.1772
   02/06/2018 01:36:00      0.077     0.054    1.1937
   02/06/2018 01:37:00      0.077     0.054    1.2092
   02/06/2018 01:38:00      0.077     0.054    1.2247
   02/06/2018 01:39:00      0.077     0.054    1.2402
   02/06/2018 01:40:00      0.077     0.054    1.2557
   02/06/2018 01:41:00      0.077     0.054    1.2712
   02/06/2018 01:42:00      0.078     0.055    1.2852
   02/06/2018 01:43:00      0.078     0.055    1.2985
   02/06/2018 01:44:00      0.078     0.055    1.3117
   02/06/2018 01:45:00      0.078     0.055    1.3249
   02/06/2018 01:46:00      0.078     0.055    1.3381
   02/06/2018 01:47:00      0.078     0.055    1.3514
   02/06/2018 01:48:00      0.079     0.055    1.3633
   02/06/2018 01:49:00      0.079     0.055    1.3745
   02/06/2018 01:50:00      0.079     0.055    1.3857
   02/06/2018 01:51:00      0.079     0.055    1.3969
   02/06/2018 01:52:00      0.079     0.055    1.4082
   02/06/2018 01:53:00      0.079     0.055    1.4194
   02/06/2018 01:54:00      0.079     0.056    1.4294
   02/06/2018 01:55:00      0.079     0.056    1.4390
   02/06/2018 01:56:00      0.079     0.056    1.4485
   02/06/2018 01:57:00      0.079     0.056    1.4580
   02/06/2018 01:58:00      0.079     0.056    1.4676
   02/06/2018 01:59:00      0.079     0.056    1.4771
   02/06/2018 02:00:00      0.080     0.056    1.4856
   02/06/2018 02:01:00      0.080     0.056    1.4937
   02/06/2018 02:02:00      0.080     0.056    1.5018
   02/06/2018 02:03:00      0.080     0.056    1.5099
   02/06/2018 02:04:00      0.080     0.056    1.5181
   02/06/2018 02:05:00      0.080     0.056    1.5262
   02/06/2018 02:06:00      0.082     0.058    1.5334
   02/06/2018 02:07:00      0.082     0.058    1.5415
   02/06/2018 02:08:00      0.082     0.058    1.5497
   02/06/2018 02:09:00      0.082     0.058    1.5579
   02/06/2018 02:10:00      0.082     0.058    1.5661
   02/06/2018 02:11:00      0.082     0.058    1.5743
   02/06/2018 02:12:00      0.086     0.060    1.5815
   02/06/2018 02:13:00      0.086     0.060    1.5909
   02/06/2018 02:14:00      0.086     0.060    1.6004
   02/06/2018 02:15:00      0.086     0.060    1.6098
   02/06/2018 02:16:00      0.086     0.060    1.6193
   02/06/2018 02:17:00      0.086     0.060    1.6287
   02/06/2018 02:18:00      0.090     0.063    1.6370
   02/06/2018 02:19:00      0.090     0.063    1.6475
   02/06/2018 02:20:00      0.090     0.063    1.6579
   02/06/2018 02:21:00      0.090     0.063    1.6684
   02/06/2018 02:22:00      0.090     0.063    1.6788
   02/06/2018 02:23:00      0.090     0.063    1.6892
   02/06/2018 02:24:00      0.093     0.065    1.6984
   02/06/2018 02:25:00      0.093     0.065    1.7097
   02/06/2018 02:26:00      0.093     0.065    1.7209
   02/06/2018 02:27:00      0.093     0.065    1.7321
   02/06/2018 02:28:00      0.093     0.065    1.7434
   02/06/2018 02:29:00      0.093     0.065    1.7546
   02/06/2018 02:30:00      0.097     0.068    1.7645
   02/06/2018 02:31:00      0.097     0.068    1.7764
   02/06/2018 02:32:00      0.097     0.068    1.7882
   02/06/2018 02:33:00      0.097     0.068    1.8001
   02/06/2018 02:34:00      0.097     0.068    1.8119
   02/06/2018 02:35:00      0.097     0.068    1.8238
   02/06/2018 02:36:00      0.101     0.070    1.8342
   02/06/2018 02:37:00      0.101     0.070    1.8466
   02/06/2018 02:38:00      0.101     0.070    1.8589
   02/06/2018 02:39:00      0.101     0.070    1.8713
   02/06/2018 02:40:00      0.101     0.070    1.8836
   02/06/2018 02:41:00      0.101     0.070    1.8960
   02/06/2018 02:42:00      0.104     0.073    1.9068
   02/06/2018 02:43:00      0.104     0.073    1.9195
   02/06/2018 02:44:00      0.104     0.073    1.9322
   02/06/2018 02:45:00      0.104     0.073    1.9450
   02/06/2018 02:46:00      0.104     0.073    1.9577
   02/06/2018 02:47:00      0.104     0.073    1.9704
   02/06/2018 02:48:00      0.108     0.076    1.9816
   02/06/2018 02:49:00      0.108     0.076    1.9946
   02/06/2018 02:50:00      0.108     0.076    2.0076
   02/06/2018 02:51:00      0.108     0.076    2.0206
   02/06/2018 02:52:00      0.108     0.076    2.0337
   02/06/2018 02:53:00      0.108     0.076    2.0467
   02/06/2018 02:54:00      0.112     0.078    2.0580
   02/06/2018 02:55:00      0.112     0.078    2.0713
   02/06/2018 02:56:00      0.112     0.078    2.0845
   02/06/2018 02:57:00      0.112     0.078    2.0978
   02/06/2018 02:58:00      0.112     0.078    2.1110
   02/06/2018 02:59:00      0.112     0.078    2.1243
   02/06/2018 03:00:00      0.115     0.081    2.1358
   02/06/2018 03:01:00      0.115     0.081    2.1492
   02/06/2018 03:02:00      0.115     0.081    2.1626
   02/06/2018 03:03:00      0.115     0.081    2.1760
   02/06/2018 03:04:00      0.115     0.081    2.1894
   02/06/2018 03:05:00      0.115     0.081    2.2028
   02/06/2018 03:06:00      0.117     0.082    2.2144
   02/06/2018 03:07:00      0.117     0.082    2.2263
   02/06/2018 03:08:00      0.117     0.082    2.2381
   02/06/2018 03:09:00      0.117     0.082    2.2499
   02/06/2018 03:10:00      0.117     0.082    2.2617
   02/06/2018 03:11:00      0.117     0.082    2.2735
   02/06/2018 03:12:00      0.117     0.082    2.2837
   02/06/2018 03:13:00      0.117     0.082    2.2925
   02/06/2018 03:14:00      0.117     0.082    2.3014
   02/06/2018 03:15:00      0.117     0.082    2.3102
   02/06/2018 03:16:00      0.117     0.082    2.3190
   02/06/2018 03:17:00      0.117     0.082    2.3279
   02/06/2018 03:18:00      0.117     0.082    2.3355
   02/06/2018 03:19:00      0.117     0.082    2.3420
   02/06/2018 03:20:00      0.117     0.082    2.3486
   02/06/2018 03:21:00      0.117     0.082    2.3552
   02/06/2018 03:22:00      0.117     0.082    2.3617
   02/06/2018 03:23:00      0.117     0.082    2.3683
   02/06/2018 03:24:00      0.117     0.082    2.3739
   02/06/2018 03:25:00      0.117     0.082    2.3788
   02/06/2018 03:26:00      0.117     0.082    2.3837
   02/06/2018 03:27:00      0.117     0.082    2.3885
   02/06/2018 03:28:00      0.117     0.082    2.3934
   02/06/2018 03:29:00      0.117     0.082    2.3983
   02/06/2018 03:30:00      0.117     0.082    2.4024
   02/06/2018 03:31:00      0.117     0.082    2.4060
   02/06/2018 03:32:00      0.117     0.082    2.4096
   02/06/2018 03:33:00      0.117     0.082    2.4132
   02/06/2018 03:34:00      0.117     0.082    2.4168
   02/06/2018 03:35:00      0.117     0.082    2.4204
   02/06/2018 03:36:00      0.120     0.084    2.4235
   02/06/2018 03:37:00      0.120     0.084    2.4289
   02/06/2018 03:38:00      0.120     0.084    2.4344
   02/06/2018 03:39:00      0.120     0.084    2.4399
   02/06/2018 03:40:00      0.120     0.084    2.4453
   02/06/2018 03:41:00      0.120     0.084    2.4508
   02/06/2018 03:42:00      0.126     0.088    2.4555
   02/06/2018 03:43:00      0.126     0.088    2.4652
   02/06/2018 03:44:00      0.126     0.088    2.4749
   02/06/2018 03:45:00      0.126     0.088    2.4846
   02/06/2018 03:46:00      0.126     0.088    2.4944
   02/06/2018 03:47:00      0.126     0.088    2.5041
   02/06/2018 03:48:00      0.132     0.092    2.5124
   02/06/2018 03:49:00      0.132     0.092    2.5253
   02/06/2018 03:50:00      0.132     0.092    2.5382
   02/06/2018 03:51:00      0.132     0.092    2.5511
   02/06/2018 03:52:00      0.132     0.092    2.5640
   02/06/2018 03:53:00      0.132     0.092    2.5769
   02/06/2018 03:54:00      0.138     0.096    2.5880
   02/06/2018 03:55:00      0.138     0.096    2.6033
   02/06/2018 03:56:00      0.138     0.096    2.6186
   02/06/2018 03:57:00      0.138     0.096    2.6339
   02/06/2018 03:58:00      0.138     0.096    2.6493
   02/06/2018 03:59:00      0.138     0.096    2.6646
   02/06/2018 04:00:00      0.144     0.100    2.6777
   02/06/2018 04:01:00      0.144     0.100    2.6948
   02/06/2018 04:02:00      0.144     0.100    2.7119
   02/06/2018 04:03:00      0.144     0.100    2.7291
   02/06/2018 04:04:00      0.144     0.100    2.7462
   02/06/2018 04:05:00      0.144     0.100    2.7633
   02/06/2018 04:06:00      0.151     0.106    2.7780
   02/06/2018 04:07:00      0.151     0.106    2.7980
   02/06/2018 04:08:00      0.151     0.106    2.8180
   02/06/2018 04:09:00      0.151     0.106    2.8379
   02/06/2018 04:10:00      0.151     0.106    2.8579
   02/06/2018 04:11:00      0.151     0.106    2.8779
   02/06/2018 04:12:00      0.160     0.112    2.8950
   02/06/2018 04:13:00      0.160     0.112    2.9186
   02/06/2018 04:14:00      0.160     0.112    2.9423
   02/06/2018 04:15:00      0.160     0.112    2.9660
   02/06/2018 04:16:00      0.160     0.112    2.9896
   02/06/2018 04:17:00      0.160     0.112    3.0133
   02/06/2018 04:18:00      0.168     0.118    3.0334
   02/06/2018 04:19:00      0.168     0.118    3.0598
   02/06/2018 04:20:00      0.168     0.118    3.0862
   02/06/2018 04:21:00      0.168     0.118    3.1127
   02/06/2018 04:22:00      0.168     0.118    3.1391
   02/06/2018 04:23:00      0.168     0.118    3.1655
   02/06/2018 04:24:00      0.177     0.124    3.1879
   02/06/2018 04:25:00      0.177     0.124    3.2164
   02/06/2018 04:26:00      0.177     0.124    3.2448
   02/06/2018 04:27:00      0.177     0.124    3.2733
   02/06/2018 04:28:00      0.177     0.124    3.3018
   02/06/2018 04:29:00      0.177     0.124    3.3303
   02/06/2018 04:30:00      0.186     0.130    3.3543
   02/06/2018 04:31:00      0.186     0.130    3.3843
   02/06/2018 04:32:00      0.186     0.130    3.4143
   02/06/2018 04:33:00      0.186     0.130    3.4443
   02/06/2018 04:34:00      0.186     0.130    3.4743
   02/06/2018 04:35:00      0.186     0.130    3.5043
   02/06/2018 04:36:00      0.198     0.138    3.5295
   02/06/2018 04:37:00      0.198     0.138    3.5639
   02/06/2018 04:38:00      0.198     0.138    3.5982
   02/06/2018 04:39:00      0.198     0.138    3.6325
   02/06/2018 04:40:00      0.198     0.138    3.6669
   02/06/2018 04:41:00      0.198     0.138    3.7012
   02/06/2018 04:42:00      0.212     0.149    3.7301
   02/06/2018 04:43:00      0.212     0.149    3.7709
   02/06/2018 04:44:00      0.212     0.149    3.8118
   02/06/2018 04:45:00      0.212     0.149    3.8527
   02/06/2018 04:46:00      0.212     0.149    3.8935
   02/06/2018 04:47:00      0.212     0.149    3.9344
   02/06/2018 04:48:00      0.227     0.159    3.9686
   02/06/2018 04:49:00      0.227     0.159    4.0143
   02/06/2018 04:50:00      0.227     0.159    4.0599
   02/06/2018 04:51:00      0.227     0.159    4.1056
   02/06/2018 04:52:00      0.227     0.159    4.1513
   02/06/2018 04:53:00      0.227     0.159    4.1969
   02/06/2018 04:54:00      0.242     0.169    4.2350
   02/06/2018 04:55:00      0.242     0.169    4.2841
   02/06/2018 04:56:00      0.242     0.169    4.3332
   02/06/2018 04:57:00      0.242     0.169    4.3823
   02/06/2018 04:58:00      0.242     0.169    4.4314
   02/06/2018 04:59:00      0.242     0.169    4.4806
   02/06/2018 05:00:00      0.256     0.179    4.5213
   02/06/2018 05:01:00      0.256     0.179    4.5728
   02/06/2018 05:02:00      0.256     0.179    4.6244
   02/06/2018 05:03:00      0.256     0.179    4.6760
   02/06/2018 05:04:00      0.256     0.179    4.7276
   02/06/2018 05:05:00      0.256     0.179    4.7791
   02/06/2018 05:06:00      0.281     0.197    4.8216
   02/06/2018 05:07:00      0.281     0.197    4.8876
   02/06/2018 05:08:00      0.281     0.197    4.9536
   02/06/2018 05:09:00      0.281     0.197    5.0196
   02/06/2018 05:10:00      0.281     0.197    5.0856
   02/06/2018 05:11:00      0.281     0.197    5.1517
   02/06/2018 05:12:00      0.316     0.221    5.2059
   02/06/2018 05:13:00      0.316     0.221    5.2953
   02/06/2018 05:14:00      0.316     0.221    5.3848
   02/06/2018 05:15:00      0.316     0.221    5.4743
   02/06/2018 05:16:00      0.316     0.221    5.5638
   02/06/2018 05:17:00      0.316     0.221    5.6533
   02/06/2018 05:18:00      0.352     0.246    5.7265
   02/06/2018 05:19:00      0.352     0.246    5.8328
   02/06/2018 05:20:00      0.352     0.246    5.9391
   02/06/2018 05:21:00      0.352     0.246    6.0455
   02/06/2018 05:22:00      0.352     0.246    6.1518
   02/06/2018 05:23:00      0.352     0.246    6.2581
   02/06/2018 05:24:00      0.387     0.271    6.3444
   02/06/2018 05:25:00      0.387     0.271    6.4624
   02/06/2018 05:26:00      0.387     0.271    6.5805
   02/06/2018 05:27:00      0.387     0.271    6.6986
   02/06/2018 05:28:00      0.387     0.271    6.8167
   02/06/2018 05:29:00      0.387     0.271    6.9348
   02/06/2018 05:30:00      0.422     0.295    7.0296
   02/06/2018 05:31:00      0.422     0.295    7.1556
   02/06/2018 05:32:00      0.422     0.295    7.2816
   02/06/2018 05:33:00      0.422     0.295    7.4075
   02/06/2018 05:34:00      0.422     0.295    7.5335
   02/06/2018 05:35:00      0.422     0.295    7.6594
   02/06/2018 05:36:00      0.873     0.611    7.7595
   02/06/2018 05:37:00      0.873     0.611    8.5362
   02/06/2018 05:38:00      0.873     0.611    9.3129
   02/06/2018 05:39:00      0.873     0.611   10.0896
   02/06/2018 05:40:00      0.873     0.611   10.8663
   02/06/2018 05:41:00      0.873     0.611   11.6430
   02/06/2018 05:42:00      1.740     0.715   12.2791
   02/06/2018 05:43:00      1.740     0.715   14.4191
   02/06/2018 05:44:00      1.740     0.715   16.5591
   02/06/2018 05:45:00      1.740     0.715   18.6991
   02/06/2018 05:46:00      1.740     0.715   20.8391
   02/06/2018 05:47:00      1.740     0.704   22.9791
   02/06/2018 05:48:00      2.799     0.684   24.6851
   02/06/2018 05:49:00      2.799     0.684   28.5767
   02/06/2018 05:50:00      2.799     0.684   32.4683
   02/06/2018 05:51:00      2.799     0.684   36.3599
   02/06/2018 05:52:00      2.799     0.684   40.2516
   02/06/2018 05:53:00      2.799     0.684   44.1432
   02/06/2018 05:54:00      5.020     0.669   47.0497
   02/06/2018 05:55:00      5.020     0.669   56.0107
   02/06/2018 05:56:00      5.020     0.669   64.9716
   02/06/2018 05:57:00      5.020     0.669   73.9326
   02/06/2018 05:58:00      5.020     0.669   82.8936
   02/06/2018 05:59:00      5.020     0.685   91.8546
   02/06/2018 06:00:00      3.484     0.674   98.1691
   02/06/2018 06:01:00      3.484     0.674   97.6026
   02/06/2018 06:02:00      3.484     0.674   97.0362
   02/06/2018 06:03:00      3.484     0.674   96.4698
   02/06/2018 06:04:00      3.484     0.674   95.9033
   02/06/2018 06:05:00      3.484     0.677   95.3369
   02/06/2018 06:06:00      0.694     0.665   95.7477
   02/06/2018 06:07:00      0.694     0.665   87.9286
   02/06/2018 06:08:00      0.694     0.665   80.1094
   02/06/2018 06:09:00      0.694     0.665   72.2902
   02/06/2018 06:10:00      0.694     0.665   64.4710
   02/06/2018 06:11:00      0.694     0.652   56.6518
   02/06/2018 06:12:00      0.611     0.639   52.6220
   02/06/2018 06:13:00      0.611     0.639   49.8809
   02/06/2018 06:14:00      0.611     0.639   47.1398
   02/06/2018 06:15:00      0.611     0.639   44.3988
   02/06/2018 06:16:00      0.611     0.639   41.6577
   02/06/2018 06:17:00      0.611     0.628   38.9166
   02/06/2018 06:18:00      0.527     0.618   37.1780
   02/06/2018 06:19:00      0.527     0.618   35.7504
   02/06/2018 06:20:00      0.527     0.618   34.3228
   02/06/2018 06:21:00      0.527     0.618   32.8952
   02/06/2018 06:22:00      0.527     0.618   31.4675
   02/06/2018 06:23:00      0.527     0.608   30.0399
   02/06/2018 06:24:00      0.444     0.599   29.0228
   02/06/2018 06:25:00      0.444     0.599   28.0614
   02/06/2018 06:26:00      0.444     0.599   27.1000
   02/06/2018 06:27:00      0.444     0.599   26.1385
   02/06/2018 06:28:00      0.444     0.599   25.1771
   02/06/2018 06:29:00      0.444     0.590   24.2156
   02/06/2018 06:30:00      0.360     0.582   23.4821
   02/06/2018 06:31:00      0.360     0.582   22.7217
   02/06/2018 06:32:00      0.360     0.582   21.9613
   02/06/2018 06:33:00      0.360     0.582   21.2010
   02/06/2018 06:34:00      0.360     0.582   20.4406
   02/06/2018 06:35:00      0.360     0.574   19.6802
   02/06/2018 06:36:00      0.309     0.568   19.0767
   02/06/2018 06:37:00      0.309     0.568   18.4800
   02/06/2018 06:38:00      0.309     0.568   17.8833
   02/06/2018 06:39:00      0.309     0.568   17.2865
   02/06/2018 06:40:00      0.309     0.568   16.6898
   02/06/2018 06:41:00      0.309     0.560   16.0930
   02/06/2018 06:42:00      0.290     0.554   15.6050
   02/06/2018 06:43:00      0.290     0.554   15.1591
   02/06/2018 06:44:00      0.290     0.554   14.7133
   02/06/2018 06:45:00      0.290     0.554   14.2674
   02/06/2018 06:46:00      0.290     0.554   13.8215
   02/06/2018 06:47:00      0.290     0.548   13.3756
   02/06/2018 06:48:00      0.271     0.543   13.0011
   02/06/2018 06:49:00      0.271     0.543   12.6468
   02/06/2018 06:50:00      0.271     0.543   12.2925
   02/06/2018 06:51:00      0.271     0.543   11.9382
   02/06/2018 06:52:00      0.271     0.543   11.5839
   02/06/2018 06:53:00      0.271     0.537   11.2297
   02/06/2018 06:54:00      0.252     0.532   10.9279
   02/06/2018 06:55:00      0.252     0.532   10.6354
   02/06/2018 06:56:00      0.252     0.532   10.3430
   02/06/2018 06:57:00      0.252     0.532   10.0505
   02/06/2018 06:58:00      0.252     0.532    9.7581
   02/06/2018 06:59:00      0.252     0.527    9.4656
   02/06/2018 07:00:00      0.233     0.523    9.2153
   02/06/2018 07:01:00      0.233     0.523    8.9688
   02/06/2018 07:02:00      0.233     0.523    8.7223
   02/06/2018 07:03:00      0.233     0.523    8.4758
   02/06/2018 07:04:00      0.233     0.523    8.2292
   02/06/2018 07:05:00      0.233     0.518    7.9827
   02/06/2018 07:06:00      0.218     0.514    7.7724
   02/06/2018 07:07:00      0.218     0.514    7.5699
   02/06/2018 07:08:00      0.218     0.514    7.3673
   02/06/2018 07:09:00      0.218     0.514    7.1648
   02/06/2018 07:10:00      0.218     0.514    6.9622
   02/06/2018 07:11:00      0.218     0.510    6.7597
   02/06/2018 07:12:00      0.208     0.506    6.5885
   02/06/2018 07:13:00      0.208     0.506    6.4293
   02/06/2018 07:14:00      0.208     0.506    6.2701
   02/06/2018 07:15:00      0.208     0.506    6.1110
   02/06/2018 07:16:00      0.208     0.506    5.9518
   02/06/2018 07:17:00      0.208     0.502    5.7926
   02/06/2018 07:18:00      0.198     0.499    5.6610
   02/06/2018 07:19:00      0.198     0.499    5.5402
   02/06/2018 07:20:00      0.198     0.499    5.4194
   02/06/2018 07:21:00      0.198     0.499    5.2986
   02/06/2018 07:22:00      0.198     0.499    5.1778
   02/06/2018 07:23:00      0.198     0.496    5.0570
   02/06/2018 07:24:00      0.188     0.493    4.9629
   02/06/2018 07:25:00      0.188     0.493    4.8825
   02/06/2018 07:26:00      0.188     0.493    4.8022
   02/06/2018 07:27:00      0.188     0.493    4.7219
   02/06/2018 07:28:00      0.188     0.493    4.6415
   02/06/2018 07:29:00      0.188     0.489    4.5612
   02/06/2018 07:30:00      0.177     0.486    4.5153
   02/06/2018 07:31:00      0.177     0.486    4.4728
   02/06/2018 07:32:00      0.177     0.486    4.4303
   02/06/2018 07:33:00      0.177     0.486    4.3878
   02/06/2018 07:34:00      0.177     0.486    4.3453
   02/06/2018 07:35:00      0.177     0.407    4.3029
   02/06/2018 07:36:00      0.168     0.118    4.2685
   02/06/2018 07:37:00      0.168     0.118    4.2301
   02/06/2018 07:38:00      0.168     0.118    4.1917
   02/06/2018 07:39:00      0.168     0.118    4.1533
   02/06/2018 07:40:00      0.168     0.118    4.1150
   02/06/2018 07:41:00      0.168     0.118    4.0766
   02/06/2018 07:42:00      0.161     0.113    4.0454
   02/06/2018 07:43:00      0.161     0.113    4.0113
   02/06/2018 07:44:00      0.161     0.113    3.9773
   02/06/2018 07:45:00      0.161     0.113    3.9432
   02/06/2018 07:46:00      0.161     0.113    3.9092
   02/06/2018 07:47:00      0.161     0.113    3.8751
   02/06/2018 07:48:00      0.154     0.108    3.8473
   02/06/2018 07:49:00      0.154     0.108    3.8161
   02/06/2018 07:50:00      0.154     0.108    3.7849
   02/06/2018 07:51:00      0.154     0.108    3.7537
   02/06/2018 07:52:00      0.154     0.108    3.7225
   02/06/2018 07:53:00      0.154     0.108    3.6913
   02/06/2018 07:54:00      0.146     0.103    3.6657
   02/06/2018 07:55:00      0.146     0.103    3.6364
   02/06/2018 07:56:00      0.146     0.103    3.6070
   02/06/2018 07:57:00      0.146     0.103    3.5777
   02/06/2018 07:58:00      0.146     0.103    3.5484
   02/06/2018 07:59:00      0.146     0.103    3.5191
   02/06/2018 08:00:00      0.139     0.097    3.4949
   02/06/2018 08:01:00      0.139     0.097    3.4669
   02/06/2018 08:02:00      0.139     0.097    3.4389
   02/06/2018 08:03:00      0.139     0.097    3.4108
   02/06/2018 08:04:00      0.139     0.097    3.3828
   02/06/2018 08:05:00      0.139     0.097    3.3547
   02/06/2018 08:06:00      0.134     0.094    3.3315
   02/06/2018 08:07:00      0.134     0.094    3.3071
   02/06/2018 08:08:00      0.134     0.094    3.2827
   02/06/2018 08:09:00      0.134     0.094    3.2582
   02/06/2018 08:10:00      0.134     0.094    3.2338
   02/06/2018 08:11:00      0.134     0.094    3.2093
   02/06/2018 08:12:00      0.131     0.092    3.1890
   02/06/2018 08:13:00      0.131     0.092    3.1689
   02/06/2018 08:14:00      0.131     0.092    3.1488
   02/06/2018 08:15:00      0.131     0.092    3.1287
   02/06/2018 08:16:00      0.131     0.092    3.1086
   02/06/2018 08:17:00      0.131     0.092    3.0885
   02/06/2018 08:18:00      0.129     0.090    3.0717
   02/06/2018 08:19:00      0.129     0.090    3.0553
   02/06/2018 08:20:00      0.129     0.090    3.0389
   02/06/2018 08:21:00      0.129     0.090    3.0225
   02/06/2018 08:22:00      0.129     0.090    3.0061
   02/06/2018 08:23:00      0.129     0.090    2.9897
   02/06/2018 08:24:00      0.126     0.088    2.9760
   02/06/2018 08:25:00      0.126     0.088    2.9614
   02/06/2018 08:26:00      0.126     0.088    2.9469
   02/06/2018 08:27:00      0.126     0.088    2.9323
   02/06/2018 08:28:00      0.126     0.088    2.9177
   02/06/2018 08:29:00      0.126     0.088    2.9031
   02/06/2018 08:30:00      0.124     0.087    2.8909
   02/06/2018 08:31:00      0.124     0.087    2.8783
   02/06/2018 08:32:00      0.124     0.087    2.8657
   02/06/2018 08:33:00      0.124     0.087    2.8531
   02/06/2018 08:34:00      0.124     0.087    2.8405
   02/06/2018 08:35:00      0.124     0.087    2.8279
   02/06/2018 08:36:00      0.121     0.085    2.8173
   02/06/2018 08:37:00      0.121     0.085    2.8054
   02/06/2018 08:38:00      0.121     0.085    2.7934
   02/06/2018 08:39:00      0.121     0.085    2.7815
   02/06/2018 08:40:00      0.121     0.085    2.7696
   02/06/2018 08:41:00      0.121     0.085    2.7577
   02/06/2018 08:42:00      0.119     0.083    2.7476
   02/06/2018 08:43:00      0.119     0.083    2.7369
   02/06/2018 08:44:00      0.119     0.083    2.7261
   02/06/2018 08:45:00      0.119     0.083    2.7154
   02/06/2018 08:46:00      0.119     0.083    2.7047
   02/06/2018 08:47:00      0.119     0.083    2.6939
   02/06/2018 08:48:00      0.116     0.081    2.6849
   02/06/2018 08:49:00      0.116     0.081    2.6742
   02/06/2018 08:50:00      0.116     0.081    2.6636
   02/06/2018 08:51:00      0.116     0.081    2.6530
   02/06/2018 08:52:00      0.116     0.081    2.6424
   02/06/2018 08:53:00      0.116     0.081    2.6318
   02/06/2018 08:54:00      0.114     0.080    2.6228
   02/06/2018 08:55:00      0.114     0.080    2.6130
   02/06/2018 08:56:00      0.114     0.080    2.6032
   02/06/2018 08:57:00      0.114     0.080    2.5934
   02/06/2018 08:58:00      0.114     0.080    2.5836
   02/06/2018 08:59:00      0.114     0.080    2.5737
   02/06/2018 09:00:00      0.111     0.078    2.5654
   02/06/2018 09:01:00      0.111     0.078    2.5555
   02/06/2018 09:02:00      0.111     0.078    2.5455
   02/06/2018 09:03:00      0.111     0.078    2.5356
   02/06/2018 09:04:00      0.111     0.078    2.5256
   02/06/2018 09:05:00      0.111     0.078    2.5157
   02/06/2018 09:06:00      0.109     0.076    2.5073
   02/06/2018 09:07:00      0.109     0.076    2.4979
   02/06/2018 09:08:00      0.109     0.076    2.4886
   02/06/2018 09:09:00      0.109     0.076    2.4792
   02/06/2018 09:10:00      0.109     0.076    2.4699
   02/06/2018 09:11:00      0.109     0.076    2.4606
   02/06/2018 09:12:00      0.106     0.074    2.4526
   02/06/2018 09:13:00      0.106     0.074    2.4430
   02/06/2018 09:14:00      0.106     0.074    2.4334
   02/06/2018 09:15:00      0.106     0.074    2.4238
   02/06/2018 09:16:00      0.106     0.074    2.4142
   02/06/2018 09:17:00      0.106     0.074    2.4046
   02/06/2018 09:18:00      0.104     0.073    2.3965
   02/06/2018 09:19:00      0.104     0.073    2.3874
   02/06/2018 09:20:00      0.104     0.073    2.3783
   02/06/2018 09:21:00      0.104     0.073    2.3692
   02/06/2018 09:22:00      0.104     0.073    2.3601
   02/06/2018 09:23:00      0.104     0.073    2.3510
   02/06/2018 09:24:00      0.101     0.070    2.3433
   02/06/2018 09:25:00      0.101     0.070    2.3339
   02/06/2018 09:26:00      0.101     0.070    2.3244
   02/06/2018 09:27:00      0.101     0.070    2.3150
   02/06/2018 09:28:00      0.101     0.070    2.3056
   02/06/2018 09:29:00      0.101     0.070    2.2962
   02/06/2018 09:30:00      0.099     0.069    2.2882
   02/06/2018 09:31:00      0.099     0.069    2.2792
   02/06/2018 09:32:00      0.099     0.069    2.2703
   02/06/2018 09:33:00      0.099     0.069    2.2613
   02/06/2018 09:34:00      0.099     0.069    2.2524
   02/06/2018 09:35:00      0.099     0.069    2.2434
   02/06/2018 09:36:00      0.096     0.067    2.2357
   02/06/2018 09:37:00      0.096     0.067    2.2264
   02/06/2018 09:38:00      0.096     0.067    2.2171
   02/06/2018 09:39:00      0.096     0.067    2.2078
   02/06/2018 09:40:00      0.096     0.067    2.1985
   02/06/2018 09:41:00      0.096     0.067    2.1892
   02/06/2018 09:42:00      0.093     0.065    2.1813
   02/06/2018 09:43:00      0.093     0.065    2.1724
   02/06/2018 09:44:00      0.093     0.065    2.1635
   02/06/2018 09:45:00      0.093     0.065    2.1546
   02/06/2018 09:46:00      0.093     0.065    2.1458
   02/06/2018 09:47:00      0.093     0.065    2.1369
   02/06/2018 09:48:00      0.090     0.063    2.1293
   02/06/2018 09:49:00      0.090     0.063    2.1200
   02/06/2018 09:50:00      0.090     0.063    2.1108
   02/06/2018 09:51:00      0.090     0.063    2.1016
   02/06/2018 09:52:00      0.090     0.063    2.0923
   02/06/2018 09:53:00      0.090     0.063    2.0831
   02/06/2018 09:54:00      0.088     0.062    2.0752
   02/06/2018 09:55:00      0.088     0.062    2.0664
   02/06/2018 09:56:00      0.088     0.062    2.0575
   02/06/2018 09:57:00      0.088     0.062    2.0487
[...]
   02/06/2018 21:38:00      0.066     0.000     0.468     0.468
   02/06/2018 21:39:00      0.066     0.000     0.468     0.468
   02/06/2018 21:40:00      0.065     0.000     0.468     0.468
   02/06/2018 21:41:00      0.065     0.000     0.468     0.468
   02/06/2018 21:42:00      0.065     0.000     0.468     0.468
   02/06/2018 21:43:00      0.065     0.000     0.468     0.468
   02/06/2018 21:44:00      0.065     0.000     0.468     0.468
   02/06/2018 21:45:00      0.064     0.000     0.468     0.468
   02/06/2018 21:46:00      0.065     0.000     0.494     0.494
   02/06/2018 21:47:00      0.065     0.000     0.494     0.494
   02/06/2018 21:48:00      0.065     0.000     0.494     0.494
   02/06/2018 21:49:00      0.065     0.000     0.494     0.494
   02/06/2018 21:50:00      0.065     0.000     0.494     0.494
   02/06/2018 21:51:00      0.064     0.000     0.494     0.494
   02/06/2018 21:52:00      0.064     0.000     0.494     0.494
   02/06/2018 21:53:00      0.064     0.000     0.494     0.494
   02/06/2018 21:54:00      0.064     0.000     0.494     0.494
   02/06/2018 21:55:00      0.064     0.000     0.494     0.494
   02/06/2018 21:56:00      0.063     0.000     0.494     0.494
   02/06/2018 21:57:00      0.063     0.000     0.494     0.494
   02/06/2018 21:58:00      0.063     0.000     0.494     0.494
   02/06/2018 21:59:00      0.063     0.000     0.494     0.494
   02/06/2018 22:00:00      0.063     0.000     0.494     0.494
   02/06/2018 22:01:00      0.063     0.000     0.505     0.505
   02/06/2018 22:02:00      0.063     0.000     0.505     0.505
   02/06/2018 22:03:00      0.063     0.000     0.505     0.505
   02/06/2018 22:04:00      0.062     0.000     0.505     0.505
   02/06/2018 22:05:00      0.062     0.000     0.505     0.505
   02/06/2018 22:06:00      0.062     0.000     0.505     0.505
   02/06/2018 22:07:00      0.062     0.000     0.505     0.505
   02/06/2018 22:08:00      0.062     0.000     0.505     0.505
   02/06/2018 22:09:00      0.062     0.000     0.505     0.505
   02/06/2018 22:10:00      0.061     0.000     0.505     0.505
   02/06/2018 22:11:00      0.061     0.000     0.505     0.505
   02/06/2018 22:12:00      0.061     0.000     0.505     0.505
   02/06/2018 22:13:00      0.061     0.000     0.505     0.505
   02/06/2018 22:14:00      0.061     0.000     0.505     0.505
   02/06/2018 22:15:00      0.060     0.000     0.505     0.505
   02/06/2018 22:16:00      0.061     0.000     0.542     0.542
   02/06/2018 22:17:00      0.061     0.000     0.542     0.542
   02/06/2018 22:18:00      0.061     0.000     0.542     0.542
   02/06/2018 22:19:00      0.061     0.000     0.542     0.542
   02/06/2018 22:20:00      0.061     0.000     0.542     0.542
   02/06/2018 22:21:00      0.061     0.000     0.542     0.542
   02/06/2018 22:22:00      0.060     0.000     0.542     0.542
   02/06/2018 22:23:00      0.060     0.000     0.542     0.542
   02/06/2018 22:24:00      0.060     0.000     0.542     0.542
   02/06/2018 22:25:00      0.060     0.000     0.542     0.542
   02/06/2018 22:26:00      0.060     0.000     0.542     0.542
   02/06/2018 22:27:00      0.060     0.000     0.542     0.542
   02/06/2018 22:28:00      0.059     0.000     0.542     0.542
   02/06/2018 22:29:00      0.059     0.000     0.542     0.542
   02/06/2018 22:30:00      0.059     0.000     0.542     0.542
   02/06/2018 22:31:00      0.060     0.000     0.575     0.575
   02/06/2018 22:32:00      0.059     0.000     0.575     0.575
   02/06/2018 22:33:00      0.059     0.000     0.575     0.575
   02/06/2018 22:34:00      0.059     0.000     0.575     0.575
   02/06/2018 22:35:00      0.059     0.000     0.575     0.575
   02/06/2018 22:36:00      0.059     0.000     0.575     0.575
   02/06/2018 22:37:00      0.059     0.000     0.575     0.575
   02/06/2018 22:38:00      0.058     0.000     0.575     0.575
   02/06/2018 22:39:00      0.058     0.000     0.575     0.575
   02/06/2018 22:40:00      0.058     0.000     0.575     0.575
   02/06/2018 22:41:00      0.058     0.000     0.575     0.575
   02/06/2018 22:42:00      0.058     0.000     0.575     0.575
   02/06/2018 22:43:00      0.058     0.000     0.575     0.575
   02/06/2018 22:44:00      0.057     0.000     0.575     0.575
   02/06/2018 22:45:00      0.057     0.000     0.575     0.575
   02/06/2018 22:46:00      0.058     0.000     0.605     0.605
   02/06/2018 22:47:00      0.058     0.000     0.605     0.605
   02/06/2018 22:48:00      0.057     0.000     0.605     0.605
   02/06/2018 22:49:00      0.057     0.000     0.605     0.605
   02/06/2018 22:50:00      0.057     0.000     0.605     0.605
   02/06/2018 22:51:00      0.057     0.000     0.605     0.605
   02/06/2018 22:52:00      0.057     0.000     0.605     0.605
   02/06/2018 22:53:00      0.057     0.000     0.605     0.605
   02/06/2018 22:54:00      0.056     0.000     0.605     0.605
   02/06/2018 22:55:00      0.056     0.000     0.605     0.605
   02/06/2018 22:56:00      0.056     0.000     0.605     0.605
   02/06/2018 22:57:00      0.056     0.000     0.605     0.605
   02/06/2018 22:58:00      0.056     0.000     0.605     0.605
   02/06/2018 22:59:00      0.056     0.000     0.605     0.605
   02/06/2018 23:00:00      0.055     0.000     0.605     0.605
   02/06/2018 23:01:00      0.056     0.000     0.644     0.644
   02/06/2018 23:02:00      0.056     0.000     0.644     0.644
   02/06/2018 23:03:00      0.056     0.000     0.644     0.644
   02/06/2018 23:04:00      0.055     0.000     0.644     0.644
   02/06/2018 23:05:00      0.055     0.000     0.644     0.644
   02/06/2018 23:06:00      0.055     0.000     0.644     0.644
   02/06/2018 23:07:00      0.055     0.000     0.644     0.644
   02/06/2018 23:08:00      0.055     0.000     0.644     0.644
   02/06/2018 23:09:00      0.055     0.000     0.644     0.644
   02/06/2018 23:10:00      0.055     0.000     0.644     0.644
   02/06/2018 23:11:00      0.054     0.000     0.644     0.644
   02/06/2018 23:12:00      0.054     0.000     0.644     0.644
   02/06/2018 23:13:00      0.054     0.000     0.644     0.644
   02/06/2018 23:14:00      0.054     0.000     0.644     0.644
   02/06/2018 23:15:00      0.054     0.000     0.644     0.644
   02/06/2018 23:16:00      0.054     0.000     0.644     0.644
   02/06/2018 23:17:00      0.053     0.000     0.644     0.644
   02/06/2018 23:18:00      0.053     0.000     0.644     0.644
   02/06/2018 23:19:00      0.053     0.000     0.644     0.644
   02/06/2018 23:20:00      0.053     0.000     0.644     0.644
   02/06/2018 23:21:00      0.053     0.000     0.644     0.644
   02/06/2018 23:22:00      0.053     0.000     0.644     0.644
   02/06/2018 23:23:00      0.053     0.000     0.644     0.644
   02/06/2018 23:24:00      0.052     0.000     0.644     0.644
   02/06/2018 23:25:00      0.052     0.000     0.644     0.644
   02/06/2018 23:26:00      0.052     0.000     0.644     0.644
   02/06/2018 23:27:00      0.052     0.000     0.644     0.644
   02/06/2018 23:28:00      0.052     0.000     0.644     0.644
   02/06/2018 23:29:00      0.052     0.000     0.644     0.644
   02/06/2018 23:30:00      0.052     0.000     0.644     0.644
   02/06/2018 23:31:00      0.051     0.000     0.633     0.633
   02/06/2018 23:32:00      0.051     0.000     0.633     0.633
   02/06/2018 23:33:00      0.051     0.000     0.633     0.633
   02/06/2018 23:34:00      0.051     0.000     0.633     0.633
   02/06/2018 23:35:00      0.051     0.000     0.633     0.633
   02/06/2018 23:36:00      0.051     0.000     0.633     0.633
   02/06/2018 23:37:00      0.050     0.000     0.633     0.633
   02/06/2018 23:38:00      0.050     0.000     0.633     0.633
   02/06/2018 23:39:00      0.050     0.000     0.633     0.633
   02/06/2018 23:40:00      0.050     0.000     0.633     0.633
   02/06/2018 23:41:00      0.050     0.000     0.633     0.633
   02/06/2018 23:42:00      0.050     0.000     0.633     0.633
   02/06/2018 23:43:00      0.050     0.000     0.633     0.633
   02/06/2018 23:44:00      0.049     0.000     0.633     0.633
   02/06/2018 23:45:00      0.049     0.000     0.633     0.633
  
  
  **************************        Volume         Depth
  Runoff Quantity Continuity     acre-feet        inches
  **************************     ---------       -------
  Total Precipitation ......        71.867         3.080
  Evaporation Loss .........         0.000         0.000
  Infiltration Loss ........        46.568         1.996
  Surface Runoff ...........        25.092         1.075
  Final Storage ............         0.270         0.012
  Continuity Error (%) .....        -0.087
  
  
  **************************        Volume        Volume
  Flow Routing Continuity        acre-feet      10^6 gal
  **************************     ---------     ---------
  Dry Weather Inflow .......         0.000         0.000
  Wet Weather Inflow .......        25.119         8.185
  Groundwater Inflow .......         0.000         0.000
  RDII Inflow ..............         0.000         0.000
  External Inflow ..........         0.000         0.000
  External Outflow .........         1.276         0.416
  Flooding Loss ............         9.049         2.949
  Evaporation Loss .........         0.000         0.000
  Exfiltration Loss ........         0.000         0.000
  Initial Stored Volume ....         6.198         2.020
  Final Stored Volume ......        20.989         6.840
  Continuity Error (%) .....         0.008
  
  
  ***************************
  Time-Step Critical Elements
  ***************************
  None
  
  
  ********************************
  Highest Flow Instability Indexes
  ********************************
  Link R4 (9)
  Link R3 (8)
  Link R1 (4)
  Link C2 (3)
  Link R2 (2)
  
  
  *************************
  Routing Time Step Summary
  *************************
  Minimum Time Step           :     1.21 sec
  Average Time Step           :    10.00 sec
  Maximum Time Step           :    10.00 sec
  Percent in Steady State     :     0.00
  Average Iterations per Step :     2.12
  Percent Not Converging      :     0.68
  
  
  ***************************
  Subcatchment Runoff Summary
  ***************************
  
  --------------------------------------------------------------------------------------------------------
                            Total      Total      Total      Total      Total       Total     Peak  Runoff
                           Precip      Runon       Evap      Infil     Runoff      Runoff   Runoff   Coeff
  Subcatchment                 in         in         in         in         in    10^6 gal      CFS
  --------------------------------------------------------------------------------------------------------
  S1                         3.08       0.00       0.00       2.00       1.07        2.04    98.17   0.348
  S2                         3.08       0.00       0.00       1.99       1.08        2.05    98.32   0.350
  S3                         3.08       0.00       0.00       1.99       1.08        2.05    98.32   0.350
  S4                         3.08       0.00       0.00       2.00       1.07        2.04    98.17   0.348
  
  
  ******************
  Node Depth Summary
  ******************
  
  ---------------------------------------------------------------------------------
                                 Average  Maximum  Maximum  Time of Max    Reported
                                   Depth    Depth      HGL   Occurrence   Max Depth
  Node                 Type         Feet     Feet     Feet  days hr:min        Feet
  ---------------------------------------------------------------------------------
  J2                   JUNCTION     3.22     4.00    94.00     0  06:36        4.00
  J3                   JUNCTION     3.74     4.00    92.00     0  05:58        4.00
  J4                   JUNCTION     1.51     2.83    88.83     0  00:04        1.95
  Out1                 OUTFALL      0.32     0.49    87.49     0  10:00        0.48
  St1                  STORAGE      3.52     4.65    94.65     0  10:00        4.65
  St2                  STORAGE      3.86     5.00    95.00     0  09:52        5.00
  St3                  STORAGE      2.55     4.18    94.18     0  07:18        4.18
  St4                  STORAGE      3.46     4.92    94.92     0  11:00        4.92
  St5                  STORAGE      0.69     0.75    90.75     0  00:00        0.75
  St6                  STORAGE      0.25     0.75    90.75     0  00:00        0.75
  
  
  *******************
  Node Inflow Summary
  *******************
  
  -------------------------------------------------------------------------------------------------
                                  Maximum  Maximum                  Lateral       Total        Flow
                                  Lateral    Total  Time of Max      Inflow      Inflow     Balance
                                   Inflow   Inflow   Occurrence      Volume      Volume       Error
  Node                 Type           CFS      CFS  days hr:min    10^6 gal    10^6 gal     Percent
  -------------------------------------------------------------------------------------------------
  J2                   JUNCTION      0.00     2.75     0  00:00           0       0.522       0.000
  J3                   JUNCTION      0.00     6.44     0  11:45           0        2.29       0.000
  J4                   JUNCTION      0.00     1.29     0  10:00           0       0.417       0.275
  Out1                 OUTFALL       0.00     1.34     0  10:00           0       0.416       0.000
  St1                  STORAGE      98.17    98.17     0  06:00        2.04        2.38      -0.001
  St2                  STORAGE      98.32    98.51     0  06:18        2.05        2.39      -0.000
  St3                  STORAGE      98.32    98.32     0  06:00        2.05        2.39       0.002
  St4                  STORAGE      98.17    98.17     0  06:18        2.04        2.38      -0.000
  St5                  STORAGE       0.00     0.00     0  00:00           0       0.337       0.000
  St6                  STORAGE       0.00     0.00     0  00:00           0       0.337       0.004
  
  
  **********************
  Node Surcharge Summary
  **********************
  
  Surcharging occurs when water rises above the top of the highest conduit.
  ---------------------------------------------------------------------
                                               Max. Height   Min. Depth
                                   Hours       Above Crown    Below Rim
  Node                 Type      Surcharged           Feet         Feet
  ---------------------------------------------------------------------
  J2                   JUNCTION       20.18          3.000        0.000
  J3                   JUNCTION       23.75          3.000        0.000
  J4                   JUNCTION       23.68          1.834        3.166
  
  
  *********************
  Node Flooding Summary
  *********************
  
  Flooding refers to all water that overflows a node, whether it ponds or not.
  --------------------------------------------------------------------------
                                                             Total   Maximum
                                 Maximum   Time of Max       Flood    Ponded
                        Hours       Rate    Occurrence      Volume     Depth
  Node                 Flooded       CFS   days hr:min    10^6 gal      Feet
  --------------------------------------------------------------------------
  J2                     17.15      2.22      0  10:00       0.518     0.000
  J3                     17.78      6.44      0  11:45       2.284     0.000
  St2                    13.89      2.25      0  09:52       0.147     0.000
  
  
  **********************
  Storage Volume Summary
  **********************
  
  --------------------------------------------------------------------------------------------------
                         Average     Avg  Evap Exfil       Maximum     Max    Time of Max    Maximum
                          Volume    Pcnt  Pcnt  Pcnt        Volume    Pcnt     Occurrence    Outflow
  Storage Unit          1000 ft3    Full  Loss  Loss      1000 ft3    Full    days hr:min        CFS
  --------------------------------------------------------------------------------------------------
  St1                    211.331      70     0     0       279.089      93       0  10:00       2.55
  St2                    231.805      77     0     0       300.000     100       0  09:52       0.20
  St3                    153.004      51     0     0       251.031      84       0  07:18       5.78
  St4                    207.633      69     0     0       295.459      98       0  11:00       3.47
  St5                     41.481      12     0     0        45.000      12       0  00:00       0.56
  St6                     15.144       4     0     0        45.000      12       0  00:00       1.20
  
  
  ***********************
  Outfall Loading Summary
  ***********************
  
  -----------------------------------------------------------
                         Flow       Avg       Max       Total
                         Freq      Flow      Flow      Volume
  Outfall Node           Pcnt       CFS       CFS    10^6 gal
  -----------------------------------------------------------
  Out1                  99.66      0.65      1.34       0.416
  -----------------------------------------------------------
  System                99.66      0.65      1.34       0.416
  
  
  ********************
  Link Flow Summary
  ********************
  
  -----------------------------------------------------------------------------
                                 Maximum  Time of Max   Maximum    Max/    Max/
                                  |Flow|   Occurrence   |Veloc|    Full    Full
  Link                 Type          CFS  days hr:min    ft/sec    Flow   Depth
  -----------------------------------------------------------------------------
  C2                   CONDUIT      1.34     0  10:00      2.13    0.58    0.75
  R1                   ORIFICE      2.55     0  00:00                          
  R2                   ORIFICE      0.23     0  06:12                          
  R3                   ORIFICE      3.47     0  23:00                          
  R4                   ORIFICE      5.78     0  07:18                          
  R5                   ORIFICE      0.56     0  10:00                          
  R6                   ORIFICE      1.20     0  06:30                          
  
  
  ***************************
  Flow Classification Summary
  ***************************
  
  -------------------------------------------------------------------------------------
                      Adjusted    ---------- Fraction of Time in Flow Class ---------- 
                       /Actual         Up    Down  Sub   Sup   Up    Down  Norm  Inlet 
  Conduit               Length    Dry  Dry   Dry   Crit  Crit  Crit  Crit  Ltd   Ctrl  
  -------------------------------------------------------------------------------------
  C2                      1.00   0.00  0.00  0.00  1.00  0.00  0.00  0.00  0.00  0.00
  
  
  *************************
  Conduit Surcharge Summary
  *************************
  
  ----------------------------------------------------------------------------
                                                           Hours        Hours 
                         --------- Hours Full --------   Above Full   Capacity
  Conduit                Both Ends  Upstream  Dnstream   Normal Flow   Limited
  ----------------------------------------------------------------------------
  C2                          0.01      0.01     23.68      0.01         0.01
  

  Analysis begun on:  Thu Aug  1 19:19:59 2019
  Analysis ended on:  Thu Aug  1 19:20:04 2019
  Total elapsed time: 00:00:05