
  EPA STORM WATER MANAGEMENT MODEL - VERSION 5.1 (Build 5.2.0.dev3)
  --------------------------------------------------------------

  
  *********************************************************
  NOTE: The summary statistics displayed in this report are
  based on results found at every computational time step,  
  not just on results from each reporting time step.
  *********************************************************
  
  ****************
  Analysis Options
  ****************
  Flow Units ............... CFS
  Process Models:
    Rainfall/Runoff ........ YES
    RDII ................... NO
    Snowmelt ............... NO
    Groundwater ............ NO
    Flow Routing ........... YES
    Ponding Allowed ........ NO
    Water Quality .......... NO
  Infiltration Method ...... MODIFIED_GREEN_AMPT
  Flow Routing Method ...... DYNWAVE
  Starting Date ............ 02/06/2018 00:00:00
  Ending Date .............. 02/07/2018 00:00:00
  Antecedent Dry Days ...... 0.0
  Report Time Step ......... 00:01:00
  Wet Time Step ............ 00:05:00
  Dry Time Step ............ 01:00:00
  Routing Time Step ........ 10.00 sec
  Variable Time Step ....... YES
  Maximum Trials ........... 8
  Number of Threads ........ 1
  Head Tolerance ........... 0.005000 ft
  
  
  *********************
  Control Actions Taken
  *********************
   02/06/2018: 00:00:00 Link R1 setting changed to   0.00 by Control ToolkitAPI
   02/06/2018: 00:00:00 Link R2 setting changed to   0.00 by Control ToolkitAPI
   02/06/2018: 00:00:00 Link R3 setting changed to   0.00 by Control ToolkitAPI
   02/06/2018: 00:00:00 Link R4 setting changed to   0.00 by Control ToolkitAPI
   02/06/2018: 00:00:00 Link R5 setting changed to   0.00 by Control ToolkitAPI
   02/06/2018: 00:00:00 Link R6 setting changed to   0.00 by Control ToolkitAPI
   02/06/2018: 00:00:00 Link R1 setting changed to   1.00 by Control ToolkitAPI
   02/06/2018: 00:00:00 Link R2 setting changed to   0.70 by Control ToolkitAPI
   02/06/2018: 00:00:00 Link R3 setting changed to   0.68 by Control ToolkitAPI
   02/06/2018: 00:00:00 Link R4 setting changed to   0.54 by Control ToolkitAPI
   02/06/2018: 00:00:00 Link R5 setting changed to   0.00 by Control ToolkitAPI
   02/06/2018: 00:00:00 Link R6 setting changed to   0.60 by Control ToolkitAPI
   02/06/2018: 00:15:09 Link R1 setting changed to   1.00 by Control ToolkitAPI
   02/06/2018: 00:15:09 Link R2 setting changed to   0.63 by Control ToolkitAPI
   02/06/2018: 00:15:09 Link R3 setting changed to   0.67 by Control ToolkitAPI
   02/06/2018: 00:15:09 Link R4 setting changed to   0.58 by Control ToolkitAPI
   02/06/2018: 00:15:09 Link R5 setting changed to   0.00 by Control ToolkitAPI
   02/06/2018: 00:15:09 Link R6 setting changed to   0.49 by Control ToolkitAPI
   02/06/2018: 00:30:09 Link R1 setting changed to   1.00 by Control ToolkitAPI
   02/06/2018: 00:30:09 Link R2 setting changed to   0.59 by Control ToolkitAPI
   02/06/2018: 00:30:09 Link R3 setting changed to   0.64 by Control ToolkitAPI
   02/06/2018: 00:30:09 Link R4 setting changed to   0.71 by Control ToolkitAPI
   02/06/2018: 00:30:09 Link R5 setting changed to   0.00 by Control ToolkitAPI
   02/06/2018: 00:30:09 Link R6 setting changed to   0.40 by Control ToolkitAPI
   02/06/2018: 00:45:09 Link R1 setting changed to   1.00 by Control ToolkitAPI
   02/06/2018: 00:45:09 Link R2 setting changed to   0.57 by Control ToolkitAPI
   02/06/2018: 00:45:09 Link R3 setting changed to   0.68 by Control ToolkitAPI
   02/06/2018: 00:45:09 Link R4 setting changed to   0.76 by Control ToolkitAPI
   02/06/2018: 00:45:09 Link R5 setting changed to   0.00 by Control ToolkitAPI
   02/06/2018: 00:45:09 Link R6 setting changed to   0.31 by Control ToolkitAPI
   02/06/2018: 01:00:09 Link R1 setting changed to   1.00 by Control ToolkitAPI
   02/06/2018: 01:00:09 Link R2 setting changed to   0.50 by Control ToolkitAPI
   02/06/2018: 01:00:09 Link R3 setting changed to   0.75 by Control ToolkitAPI
   02/06/2018: 01:00:09 Link R4 setting changed to   0.77 by Control ToolkitAPI
   02/06/2018: 01:00:09 Link R5 setting changed to   0.00 by Control ToolkitAPI
   02/06/2018: 01:00:09 Link R6 setting changed to   0.26 by Control ToolkitAPI
   02/06/2018: 01:15:09 Link R1 setting changed to   1.00 by Control ToolkitAPI
   02/06/2018: 01:15:09 Link R2 setting changed to   0.45 by Control ToolkitAPI
   02/06/2018: 01:15:09 Link R3 setting changed to   0.83 by Control ToolkitAPI
   02/06/2018: 01:15:09 Link R4 setting changed to   0.83 by Control ToolkitAPI
   02/06/2018: 01:15:09 Link R5 setting changed to   0.00 by Control ToolkitAPI
   02/06/2018: 01:15:09 Link R6 setting changed to   0.19 by Control ToolkitAPI
   02/06/2018: 01:30:09 Link R1 setting changed to   1.00 by Control ToolkitAPI
   02/06/2018: 01:30:09 Link R2 setting changed to   0.37 by Control ToolkitAPI
   02/06/2018: 01:30:09 Link R3 setting changed to   0.88 by Control ToolkitAPI
   02/06/2018: 01:30:09 Link R4 setting changed to   0.85 by Control ToolkitAPI
   02/06/2018: 01:30:09 Link R5 setting changed to   0.00 by Control ToolkitAPI
   02/06/2018: 01:30:09 Link R6 setting changed to   0.15 by Control ToolkitAPI
   02/06/2018: 01:45:09 Link R1 setting changed to   1.00 by Control ToolkitAPI
   02/06/2018: 01:45:09 Link R2 setting changed to   0.29 by Control ToolkitAPI
   02/06/2018: 01:45:09 Link R3 setting changed to   0.87 by Control ToolkitAPI
   02/06/2018: 01:45:09 Link R4 setting changed to   0.88 by Control ToolkitAPI
   02/06/2018: 01:45:09 Link R5 setting changed to   0.00 by Control ToolkitAPI
   02/06/2018: 01:45:09 Link R6 setting changed to   0.12 by Control ToolkitAPI
   02/06/2018: 02:00:09 Link R1 setting changed to   0.98 by Control ToolkitAPI
   02/06/2018: 02:00:09 Link R2 setting changed to   0.24 by Control ToolkitAPI
   02/06/2018: 02:00:09 Link R3 setting changed to   0.92 by Control ToolkitAPI
   02/06/2018: 02:00:09 Link R4 setting changed to   0.88 by Control ToolkitAPI
   02/06/2018: 02:00:09 Link R5 setting changed to   0.00 by Control ToolkitAPI
   02/06/2018: 02:00:09 Link R6 setting changed to   0.08 by Control ToolkitAPI
   02/06/2018: 02:15:09 Link R1 setting changed to   0.98 by Control ToolkitAPI
   02/06/2018: 02:15:09 Link R2 setting changed to   0.19 by Control ToolkitAPI
   02/06/2018: 02:15:09 Link R3 setting changed to   0.92 by Control ToolkitAPI
   02/06/2018: 02:15:09 Link R4 setting changed to   0.86 by Control ToolkitAPI
   02/06/2018: 02:15:09 Link R5 setting changed to   0.00 by Control ToolkitAPI
   02/06/2018: 02:15:09 Link R6 setting changed to   0.04 by Control ToolkitAPI
   02/06/2018: 02:30:09 Link R1 setting changed to   0.96 by Control ToolkitAPI
   02/06/2018: 02:30:09 Link R2 setting changed to   0.16 by Control ToolkitAPI
   02/06/2018: 02:30:09 Link R3 setting changed to   0.96 by Control ToolkitAPI
   02/06/2018: 02:30:09 Link R4 setting changed to   0.82 by Control ToolkitAPI
   02/06/2018: 02:30:09 Link R5 setting changed to   0.00 by Control ToolkitAPI
   02/06/2018: 02:30:09 Link R6 setting changed to   0.00 by Control ToolkitAPI
   02/06/2018: 02:45:09 Link R1 setting changed to   0.97 by Control ToolkitAPI
   02/06/2018: 02:45:09 Link R2 setting changed to   0.16 by Control ToolkitAPI
   02/06/2018: 02:45:09 Link R3 setting changed to   1.00 by Control ToolkitAPI
   02/06/2018: 02:45:09 Link R4 setting changed to   0.84 by Control ToolkitAPI
   02/06/2018: 02:45:09 Link R5 setting changed to   0.00 by Control ToolkitAPI
   02/06/2018: 02:45:09 Link R6 setting changed to   0.00 by Control ToolkitAPI
   02/06/2018: 03:00:09 Link R1 setting changed to   0.92 by Control ToolkitAPI
   02/06/2018: 03:00:09 Link R2 setting changed to   0.21 by Control ToolkitAPI
   02/06/2018: 03:00:09 Link R3 setting changed to   1.00 by Control ToolkitAPI
   02/06/2018: 03:00:09 Link R4 setting changed to   0.91 by Control ToolkitAPI
   02/06/2018: 03:00:09 Link R5 setting changed to   0.00 by Control ToolkitAPI
   02/06/2018: 03:00:09 Link R6 setting changed to   0.01 by Control ToolkitAPI
   02/06/2018: 03:15:09 Link R1 setting changed to   0.86 by Control ToolkitAPI
   02/06/2018: 03:15:09 Link R2 setting changed to   0.23 by Control ToolkitAPI
   02/06/2018: 03:15:09 Link R3 setting changed to   1.00 by Control ToolkitAPI
   02/06/2018: 03:15:09 Link R4 setting changed to   0.94 by Control ToolkitAPI
   02/06/2018: 03:15:09 Link R5 setting changed to   0.00 by Control ToolkitAPI
   02/06/2018: 03:15:09 Link R6 setting changed to   0.03 by Control ToolkitAPI
   02/06/2018: 03:30:09 Link R1 setting changed to   0.85 by Control ToolkitAPI
   02/06/2018: 03:30:09 Link R2 setting changed to   0.20 by Control ToolkitAPI
   02/06/2018: 03:30:09 Link R3 setting changed to   1.00 by Control ToolkitAPI
   02/06/2018: 03:30:09 Link R4 setting changed to   0.96 by Control ToolkitAPI
   02/06/2018: 03:30:09 Link R5 setting changed to   0.00 by Control ToolkitAPI
   02/06/2018: 03:30:09 Link R6 setting changed to   0.05 by Control ToolkitAPI
   02/06/2018: 03:45:09 Link R1 setting changed to   0.84 by Control ToolkitAPI
   02/06/2018: 03:45:09 Link R2 setting changed to   0.18 by Control ToolkitAPI
   02/06/2018: 03:45:09 Link R3 setting changed to   1.00 by Control ToolkitAPI
   02/06/2018: 03:45:09 Link R4 setting changed to   0.94 by Control ToolkitAPI
   02/06/2018: 03:45:09 Link R5 setting changed to   0.00 by Control ToolkitAPI
   02/06/2018: 03:45:09 Link R6 setting changed to   0.04 by Control ToolkitAPI
   02/06/2018: 04:00:09 Link R1 setting changed to   0.87 by Control ToolkitAPI
   02/06/2018: 04:00:09 Link R2 setting changed to   0.20 by Control ToolkitAPI
   02/06/2018: 04:00:09 Link R3 setting changed to   1.00 by Control ToolkitAPI
   02/06/2018: 04:00:09 Link R4 setting changed to   0.93 by Control ToolkitAPI
   02/06/2018: 04:00:09 Link R5 setting changed to   0.00 by Control ToolkitAPI
   02/06/2018: 04:00:09 Link R6 setting changed to   0.10 by Control ToolkitAPI
   02/06/2018: 04:15:09 Link R1 setting changed to   0.90 by Control ToolkitAPI
   02/06/2018: 04:15:09 Link R2 setting changed to   0.21 by Control ToolkitAPI
   02/06/2018: 04:15:09 Link R3 setting changed to   0.98 by Control ToolkitAPI
   02/06/2018: 04:15:09 Link R4 setting changed to   0.88 by Control ToolkitAPI
   02/06/2018: 04:15:09 Link R5 setting changed to   0.00 by Control ToolkitAPI
   02/06/2018: 04:15:09 Link R6 setting changed to   0.15 by Control ToolkitAPI
   02/06/2018: 04:30:09 Link R1 setting changed to   0.95 by Control ToolkitAPI
   02/06/2018: 04:30:09 Link R2 setting changed to   0.25 by Control ToolkitAPI
   02/06/2018: 04:30:09 Link R3 setting changed to   1.00 by Control ToolkitAPI
   02/06/2018: 04:30:09 Link R4 setting changed to   0.92 by Control ToolkitAPI
   02/06/2018: 04:30:09 Link R5 setting changed to   0.00 by Control ToolkitAPI
   02/06/2018: 04:30:09 Link R6 setting changed to   0.15 by Control ToolkitAPI
   02/06/2018: 04:45:09 Link R1 setting changed to   0.94 by Control ToolkitAPI
   02/06/2018: 04:45:09 Link R2 setting changed to   0.24 by Control ToolkitAPI
   02/06/2018: 04:45:09 Link R3 setting changed to   1.00 by Control ToolkitAPI
   02/06/2018: 04:45:09 Link R4 setting changed to   0.98 by Control ToolkitAPI
   02/06/2018: 04:45:09 Link R5 setting changed to   0.00 by Control ToolkitAPI
   02/06/2018: 04:45:09 Link R6 setting changed to   0.16 by Control ToolkitAPI
   02/06/2018: 05:00:09 Link R1 setting changed to   0.96 by Control ToolkitAPI
   02/06/2018: 05:00:09 Link R2 setting changed to   0.23 by Control ToolkitAPI
   02/06/2018: 05:00:09 Link R3 setting changed to   1.00 by Control ToolkitAPI
   02/06/2018: 05:00:09 Link R4 setting changed to   0.99 by Control ToolkitAPI
   02/06/2018: 05:00:09 Link R5 setting changed to   0.00 by Control ToolkitAPI
   02/06/2018: 05:00:09 Link R6 setting changed to   0.18 by Control ToolkitAPI
   02/06/2018: 05:15:09 Link R1 setting changed to   0.91 by Control ToolkitAPI
   02/06/2018: 05:15:09 Link R2 setting changed to   0.26 by Control ToolkitAPI
   02/06/2018: 05:15:09 Link R3 setting changed to   1.00 by Control ToolkitAPI
   02/06/2018: 05:15:09 Link R4 setting changed to   0.99 by Control ToolkitAPI
   02/06/2018: 05:15:09 Link R5 setting changed to   0.00 by Control ToolkitAPI
   02/06/2018: 05:15:09 Link R6 setting changed to   0.13 by Control ToolkitAPI
   02/06/2018: 05:30:09 Link R1 setting changed to   0.90 by Control ToolkitAPI
   02/06/2018: 05:30:09 Link R2 setting changed to   0.32 by Control ToolkitAPI
   02/06/2018: 05:30:09 Link R3 setting changed to   1.00 by Control ToolkitAPI
   02/06/2018: 05:30:09 Link R4 setting changed to   1.00 by Control ToolkitAPI
   02/06/2018: 05:30:09 Link R5 setting changed to   0.00 by Control ToolkitAPI
   02/06/2018: 05:30:09 Link R6 setting changed to   0.05 by Control ToolkitAPI
   02/06/2018: 05:45:09 Link R1 setting changed to   0.91 by Control ToolkitAPI
   02/06/2018: 05:45:09 Link R2 setting changed to   0.28 by Control ToolkitAPI
   02/06/2018: 05:45:09 Link R3 setting changed to   1.00 by Control ToolkitAPI
   02/06/2018: 05:45:09 Link R4 setting changed to   1.00 by Control ToolkitAPI
   02/06/2018: 05:45:09 Link R5 setting changed to   0.00 by Control ToolkitAPI
   02/06/2018: 05:45:09 Link R6 setting changed to   0.03 by Control ToolkitAPI
   02/06/2018: 06:00:09 Link R1 setting changed to   0.91 by Control ToolkitAPI
   02/06/2018: 06:00:09 Link R2 setting changed to   0.25 by Control ToolkitAPI
   02/06/2018: 06:00:09 Link R3 setting changed to   1.00 by Control ToolkitAPI
   02/06/2018: 06:00:09 Link R4 setting changed to   1.00 by Control ToolkitAPI
   02/06/2018: 06:00:09 Link R5 setting changed to   0.00 by Control ToolkitAPI
   02/06/2018: 06:00:09 Link R6 setting changed to   0.04 by Control ToolkitAPI
   02/06/2018: 06:15:09 Link R1 setting changed to   0.87 by Control ToolkitAPI
   02/06/2018: 06:15:09 Link R2 setting changed to   0.20 by Control ToolkitAPI
   02/06/2018: 06:15:09 Link R3 setting changed to   1.00 by Control ToolkitAPI
   02/06/2018: 06:15:09 Link R4 setting changed to   1.00 by Control ToolkitAPI
   02/06/2018: 06:15:09 Link R5 setting changed to   0.00 by Control ToolkitAPI
   02/06/2018: 06:15:09 Link R6 setting changed to   0.01 by Control ToolkitAPI
   02/06/2018: 06:30:09 Link R1 setting changed to   0.88 by Control ToolkitAPI
   02/06/2018: 06:30:09 Link R2 setting changed to   0.17 by Control ToolkitAPI
   02/06/2018: 06:30:09 Link R3 setting changed to   1.00 by Control ToolkitAPI
   02/06/2018: 06:30:09 Link R4 setting changed to   1.00 by Control ToolkitAPI
   02/06/2018: 06:30:09 Link R5 setting changed to   0.00 by Control ToolkitAPI
   02/06/2018: 06:30:09 Link R6 setting changed to   0.00 by Control ToolkitAPI
   02/06/2018: 06:45:09 Link R1 setting changed to   0.83 by Control ToolkitAPI
   02/06/2018: 06:45:09 Link R2 setting changed to   0.19 by Control ToolkitAPI
   02/06/2018: 06:45:09 Link R3 setting changed to   1.00 by Control ToolkitAPI
   02/06/2018: 06:45:09 Link R4 setting changed to   1.00 by Control ToolkitAPI
   02/06/2018: 06:45:09 Link R5 setting changed to   0.00 by Control ToolkitAPI
   02/06/2018: 06:45:09 Link R6 setting changed to   0.00 by Control ToolkitAPI
   02/06/2018: 07:00:09 Link R1 setting changed to   0.85 by Control ToolkitAPI
   02/06/2018: 07:00:09 Link R2 setting changed to   0.17 by Control ToolkitAPI
   02/06/2018: 07:00:09 Link R3 setting changed to   1.00 by Control ToolkitAPI
   02/06/2018: 07:00:09 Link R4 setting changed to   1.00 by Control ToolkitAPI
   02/06/2018: 07:00:09 Link R5 setting changed to   0.00 by Control ToolkitAPI
   02/06/2018: 07:00:09 Link R6 setting changed to   0.00 by Control ToolkitAPI
   02/06/2018: 07:15:09 Link R1 setting changed to   0.89 by Control ToolkitAPI
   02/06/2018: 07:15:09 Link R2 setting changed to   0.15 by Control ToolkitAPI
   02/06/2018: 07:15:09 Link R3 setting changed to   1.00 by Control ToolkitAPI
   02/06/2018: 07:15:09 Link R4 setting changed to   1.00 by Control ToolkitAPI
   02/06/2018: 07:15:09 Link R5 setting changed to   0.00 by Control ToolkitAPI
   02/06/2018: 07:15:09 Link R6 setting changed to   0.00 by Control ToolkitAPI
   02/06/2018: 07:30:09 Link R1 setting changed to   0.88 by Control ToolkitAPI
   02/06/2018: 07:30:09 Link R2 setting changed to   0.07 by Control ToolkitAPI
   02/06/2018: 07:30:09 Link R3 setting changed to   1.00 by Control ToolkitAPI
   02/06/2018: 07:30:09 Link R4 setting changed to   1.00 by Control ToolkitAPI
   02/06/2018: 07:30:09 Link R5 setting changed to   0.00 by Control ToolkitAPI
   02/06/2018: 07:30:09 Link R6 setting changed to   0.00 by Control ToolkitAPI
   02/06/2018: 07:45:09 Link R1 setting changed to   0.84 by Control ToolkitAPI
   02/06/2018: 07:45:09 Link R2 setting changed to   0.05 by Control ToolkitAPI
   02/06/2018: 07:45:09 Link R3 setting changed to   1.00 by Control ToolkitAPI
   02/06/2018: 07:45:09 Link R4 setting changed to   1.00 by Control ToolkitAPI
   02/06/2018: 07:45:09 Link R5 setting changed to   0.00 by Control ToolkitAPI
   02/06/2018: 07:45:09 Link R6 setting changed to   0.00 by Control ToolkitAPI
   02/06/2018: 08:00:09 Link R1 setting changed to   0.79 by Control ToolkitAPI
   02/06/2018: 08:00:09 Link R2 setting changed to   0.00 by Control ToolkitAPI
   02/06/2018: 08:00:09 Link R3 setting changed to   1.00 by Control ToolkitAPI
   02/06/2018: 08:00:09 Link R4 setting changed to   1.00 by Control ToolkitAPI
   02/06/2018: 08:00:09 Link R5 setting changed to   0.00 by Control ToolkitAPI
   02/06/2018: 08:00:09 Link R6 setting changed to   0.00 by Control ToolkitAPI
   02/06/2018: 08:15:09 Link R1 setting changed to   0.73 by Control ToolkitAPI
   02/06/2018: 08:15:09 Link R2 setting changed to   0.00 by Control ToolkitAPI
   02/06/2018: 08:15:09 Link R3 setting changed to   1.00 by Control ToolkitAPI
   02/06/2018: 08:15:09 Link R4 setting changed to   1.00 by Control ToolkitAPI
   02/06/2018: 08:15:09 Link R5 setting changed to   0.00 by Control ToolkitAPI
   02/06/2018: 08:15:09 Link R6 setting changed to   0.00 by Control ToolkitAPI
   02/06/2018: 08:30:09 Link R1 setting changed to   0.70 by Control ToolkitAPI
   02/06/2018: 08:30:09 Link R2 setting changed to   0.00 by Control ToolkitAPI
   02/06/2018: 08:30:09 Link R3 setting changed to   1.00 by Control ToolkitAPI
   02/06/2018: 08:30:09 Link R4 setting changed to   1.00 by Control ToolkitAPI
   02/06/2018: 08:30:09 Link R5 setting changed to   0.00 by Control ToolkitAPI
   02/06/2018: 08:30:09 Link R6 setting changed to   0.00 by Control ToolkitAPI
   02/06/2018: 08:45:09 Link R1 setting changed to   0.68 by Control ToolkitAPI
   02/06/2018: 08:45:09 Link R2 setting changed to   0.00 by Control ToolkitAPI
   02/06/2018: 08:45:09 Link R3 setting changed to   1.00 by Control ToolkitAPI
   02/06/2018: 08:45:09 Link R4 setting changed to   1.00 by Control ToolkitAPI
   02/06/2018: 08:45:09 Link R5 setting changed to   0.00 by Control ToolkitAPI
   02/06/2018: 08:45:09 Link R6 setting changed to   0.00 by Control ToolkitAPI
   02/06/2018: 09:00:09 Link R1 setting changed to   0.67 by Control ToolkitAPI
   02/06/2018: 09:00:09 Link R2 setting changed to   0.01 by Control ToolkitAPI
   02/06/2018: 09:00:09 Link R3 setting changed to   1.00 by Control ToolkitAPI
   02/06/2018: 09:00:09 Link R4 setting changed to   1.00 by Control ToolkitAPI
   02/06/2018: 09:00:09 Link R5 setting changed to   0.00 by Control ToolkitAPI
   02/06/2018: 09:00:09 Link R6 setting changed to   0.00 by Control ToolkitAPI
   02/06/2018: 09:15:09 Link R1 setting changed to   0.73 by Control ToolkitAPI
   02/06/2018: 09:15:09 Link R2 setting changed to   0.01 by Control ToolkitAPI
   02/06/2018: 09:15:09 Link R3 setting changed to   1.00 by Control ToolkitAPI
   02/06/2018: 09:15:09 Link R4 setting changed to   1.00 by Control ToolkitAPI
   02/06/2018: 09:15:09 Link R5 setting changed to   0.00 by Control ToolkitAPI
   02/06/2018: 09:15:09 Link R6 setting changed to   0.00 by Control ToolkitAPI
   02/06/2018: 09:30:09 Link R1 setting changed to   0.73 by Control ToolkitAPI
   02/06/2018: 09:30:09 Link R2 setting changed to   0.04 by Control ToolkitAPI
   02/06/2018: 09:30:09 Link R3 setting changed to   1.00 by Control ToolkitAPI
   02/06/2018: 09:30:09 Link R4 setting changed to   1.00 by Control ToolkitAPI
   02/06/2018: 09:30:09 Link R5 setting changed to   0.00 by Control ToolkitAPI
   02/06/2018: 09:30:09 Link R6 setting changed to   0.00 by Control ToolkitAPI
   02/06/2018: 09:45:09 Link R1 setting changed to   0.72 by Control ToolkitAPI
   02/06/2018: 09:45:09 Link R2 setting changed to   0.00 by Control ToolkitAPI
   02/06/2018: 09:45:09 Link R3 setting changed to   1.00 by Control ToolkitAPI
   02/06/2018: 09:45:09 Link R4 setting changed to   1.00 by Control ToolkitAPI
   02/06/2018: 09:45:09 Link R5 setting changed to   0.00 by Control ToolkitAPI
   02/06/2018: 09:45:09 Link R6 setting changed to   0.00 by Control ToolkitAPI
   02/06/2018: 10:00:09 Link R1 setting changed to   0.70 by Control ToolkitAPI
   02/06/2018: 10:00:09 Link R2 setting changed to   0.00 by Control ToolkitAPI
   02/06/2018: 10:00:09 Link R3 setting changed to   1.00 by Control ToolkitAPI
   02/06/2018: 10:00:09 Link R4 setting changed to   1.00 by Control ToolkitAPI
   02/06/2018: 10:00:09 Link R5 setting changed to   0.00 by Control ToolkitAPI
   02/06/2018: 10:00:09 Link R6 setting changed to   0.00 by Control ToolkitAPI
   02/06/2018: 10:15:09 Link R1 setting changed to   0.69 by Control ToolkitAPI
   02/06/2018: 10:15:09 Link R2 setting changed to   0.02 by Control ToolkitAPI
   02/06/2018: 10:15:09 Link R3 setting changed to   1.00 by Control ToolkitAPI
   02/06/2018: 10:15:09 Link R4 setting changed to   1.00 by Control ToolkitAPI
   02/06/2018: 10:15:09 Link R5 setting changed to   0.00 by Control ToolkitAPI
   02/06/2018: 10:15:09 Link R6 setting changed to   0.00 by Control ToolkitAPI
   02/06/2018: 10:30:09 Link R1 setting changed to   0.69 by Control ToolkitAPI
   02/06/2018: 10:30:09 Link R2 setting changed to   0.00 by Control ToolkitAPI
   02/06/2018: 10:30:09 Link R3 setting changed to   1.00 by Control ToolkitAPI
   02/06/2018: 10:30:09 Link R4 setting changed to   1.00 by Control ToolkitAPI
   02/06/2018: 10:30:09 Link R5 setting changed to   0.00 by Control ToolkitAPI
   02/06/2018: 10:30:09 Link R6 setting changed to   0.00 by Control ToolkitAPI
   02/06/2018: 10:45:09 Link R1 setting changed to   0.72 by Control ToolkitAPI
   02/06/2018: 10:45:09 Link R2 setting changed to   0.00 by Control ToolkitAPI
   02/06/2018: 10:45:09 Link R3 setting changed to   1.00 by Control ToolkitAPI
   02/06/2018: 10:45:09 Link R4 setting changed to   1.00 by Control ToolkitAPI
   02/06/2018: 10:45:09 Link R5 setting changed to   0.00 by Control ToolkitAPI
   02/06/2018: 10:45:09 Link R6 setting changed to   0.00 by Control ToolkitAPI
   02/06/2018: 11:00:09 Link R1 setting changed to   0.73 by Control ToolkitAPI
   02/06/2018: 11:00:09 Link R2 setting changed to   0.00 by Control ToolkitAPI
   02/06/2018: 11:00:09 Link R3 setting changed to   1.00 by Control ToolkitAPI
   02/06/2018: 11:00:09 Link R4 setting changed to   1.00 by Control ToolkitAPI
   02/06/2018: 11:00:09 Link R5 setting changed to   0.00 by Control ToolkitAPI
   02/06/2018: 11:00:09 Link R6 setting changed to   0.00 by Control ToolkitAPI
   02/06/2018: 11:15:09 Link R1 setting changed to   0.71 by Control ToolkitAPI
   02/06/2018: 11:15:09 Link R2 setting changed to   0.00 by Control ToolkitAPI
   02/06/2018: 11:15:09 Link R3 setting changed to   1.00 by Control ToolkitAPI
   02/06/2018: 11:15:09 Link R4 setting changed to   1.00 by Control ToolkitAPI
   02/06/2018: 11:15:09 Link R5 setting changed to   0.00 by Control ToolkitAPI
   02/06/2018: 11:15:09 Link R6 setting changed to   0.00 by Control ToolkitAPI
   02/06/2018: 11:30:09 Link R1 setting changed to   0.70 by Control ToolkitAPI
   02/06/2018: 11:30:09 Link R2 setting changed to   0.00 by Control ToolkitAPI
   02/06/2018: 11:30:09 Link R3 setting changed to   1.00 by Control ToolkitAPI
   02/06/2018: 11:30:09 Link R4 setting changed to   1.00 by Control ToolkitAPI
   02/06/2018: 11:30:09 Link R5 setting changed to   0.00 by Control ToolkitAPI
   02/06/2018: 11:30:09 Link R6 setting changed to   0.00 by Control ToolkitAPI
   02/06/2018: 11:45:09 Link R1 setting changed to   0.70 by Control ToolkitAPI
   02/06/2018: 11:45:09 Link R2 setting changed to   0.00 by Control ToolkitAPI
   02/06/2018: 11:45:09 Link R3 setting changed to   1.00 by Control ToolkitAPI
   02/06/2018: 11:45:09 Link R4 setting changed to   1.00 by Control ToolkitAPI
   02/06/2018: 11:45:09 Link R5 setting changed to   0.00 by Control ToolkitAPI
   02/06/2018: 11:45:09 Link R6 setting changed to   0.00 by Control ToolkitAPI
   02/06/2018: 12:00:09 Link R1 setting changed to   0.70 by Control ToolkitAPI
   02/06/2018: 12:00:09 Link R2 setting changed to   0.00 by Control ToolkitAPI
   02/06/2018: 12:00:09 Link R3 setting changed to   1.00 by Control ToolkitAPI
   02/06/2018: 12:00:09 Link R4 setting changed to   1.00 by Control ToolkitAPI
   02/06/2018: 12:00:09 Link R5 setting changed to   0.00 by Control ToolkitAPI
   02/06/2018: 12:00:09 Link R6 setting changed to   0.00 by Control ToolkitAPI
   02/06/2018: 12:15:09 Link R1 setting changed to   0.67 by Control ToolkitAPI
   02/06/2018: 12:15:09 Link R2 setting changed to   0.00 by Control ToolkitAPI
   02/06/2018: 12:15:09 Link R3 setting changed to   1.00 by Control ToolkitAPI
   02/06/2018: 12:15:09 Link R4 setting changed to   1.00 by Control ToolkitAPI
   02/06/2018: 12:15:09 Link R5 setting changed to   0.00 by Control ToolkitAPI
   02/06/2018: 12:15:09 Link R6 setting changed to   0.00 by Control ToolkitAPI
   02/06/2018: 12:30:09 Link R1 setting changed to   0.64 by Control ToolkitAPI
   02/06/2018: 12:30:09 Link R2 setting changed to   0.00 by Control ToolkitAPI
   02/06/2018: 12:30:09 Link R3 setting changed to   1.00 by Control ToolkitAPI
   02/06/2018: 12:30:09 Link R4 setting changed to   0.99 by Control ToolkitAPI
   02/06/2018: 12:30:09 Link R5 setting changed to   0.00 by Control ToolkitAPI
   02/06/2018: 12:30:09 Link R6 setting changed to   0.00 by Control ToolkitAPI
   02/06/2018: 12:45:09 Link R1 setting changed to   0.69 by Control ToolkitAPI
   02/06/2018: 12:45:09 Link R2 setting changed to   0.00 by Control ToolkitAPI
   02/06/2018: 12:45:09 Link R3 setting changed to   1.00 by Control ToolkitAPI
   02/06/2018: 12:45:09 Link R4 setting changed to   0.99 by Control ToolkitAPI
   02/06/2018: 12:45:09 Link R5 setting changed to   0.00 by Control ToolkitAPI
   02/06/2018: 12:45:09 Link R6 setting changed to   0.00 by Control ToolkitAPI
   02/06/2018: 13:00:09 Link R1 setting changed to   0.71 by Control ToolkitAPI
   02/06/2018: 13:00:09 Link R2 setting changed to   0.00 by Control ToolkitAPI
   02/06/2018: 13:00:09 Link R3 setting changed to   1.00 by Control ToolkitAPI
   02/06/2018: 13:00:09 Link R4 setting changed to   0.93 by Control ToolkitAPI
   02/06/2018: 13:00:09 Link R5 setting changed to   0.00 by Control ToolkitAPI
   02/06/2018: 13:00:09 Link R6 setting changed to   0.00 by Control ToolkitAPI
   02/06/2018: 13:15:09 Link R1 setting changed to   0.71 by Control ToolkitAPI
   02/06/2018: 13:15:09 Link R2 setting changed to   0.00 by Control ToolkitAPI
   02/06/2018: 13:15:09 Link R3 setting changed to   1.00 by Control ToolkitAPI
   02/06/2018: 13:15:09 Link R4 setting changed to   0.95 by Control ToolkitAPI
   02/06/2018: 13:15:09 Link R5 setting changed to   0.00 by Control ToolkitAPI
   02/06/2018: 13:15:09 Link R6 setting changed to   0.00 by Control ToolkitAPI
   02/06/2018: 13:30:09 Link R1 setting changed to   0.65 by Control ToolkitAPI
   02/06/2018: 13:30:09 Link R2 setting changed to   0.00 by Control ToolkitAPI
   02/06/2018: 13:30:09 Link R3 setting changed to   1.00 by Control ToolkitAPI
   02/06/2018: 13:30:09 Link R4 setting changed to   0.93 by Control ToolkitAPI
   02/06/2018: 13:30:09 Link R5 setting changed to   0.00 by Control ToolkitAPI
   02/06/2018: 13:30:09 Link R6 setting changed to   0.00 by Control ToolkitAPI
   02/06/2018: 13:45:09 Link R1 setting changed to   0.69 by Control ToolkitAPI
   02/06/2018: 13:45:09 Link R2 setting changed to   0.00 by Control ToolkitAPI
   02/06/2018: 13:45:09 Link R3 setting changed to   1.00 by Control ToolkitAPI
   02/06/2018: 13:45:09 Link R4 setting changed to   0.95 by Control ToolkitAPI
   02/06/2018: 13:45:09 Link R5 setting changed to   0.00 by Control ToolkitAPI
   02/06/2018: 13:45:09 Link R6 setting changed to   0.00 by Control ToolkitAPI
   02/06/2018: 14:00:09 Link R1 setting changed to   0.68 by Control ToolkitAPI
   02/06/2018: 14:00:09 Link R2 setting changed to   0.00 by Control ToolkitAPI
   02/06/2018: 14:00:09 Link R3 setting changed to   1.00 by Control ToolkitAPI
   02/06/2018: 14:00:09 Link R4 setting changed to   0.95 by Control ToolkitAPI
   02/06/2018: 14:00:09 Link R5 setting changed to   0.00 by Control ToolkitAPI
   02/06/2018: 14:00:09 Link R6 setting changed to   0.00 by Control ToolkitAPI
   02/06/2018: 14:15:09 Link R1 setting changed to   0.66 by Control ToolkitAPI
   02/06/2018: 14:15:09 Link R2 setting changed to   0.00 by Control ToolkitAPI
   02/06/2018: 14:15:09 Link R3 setting changed to   1.00 by Control ToolkitAPI
   02/06/2018: 14:15:09 Link R4 setting changed to   0.92 by Control ToolkitAPI
   02/06/2018: 14:15:09 Link R5 setting changed to   0.00 by Control ToolkitAPI
   02/06/2018: 14:15:09 Link R6 setting changed to   0.00 by Control ToolkitAPI
   02/06/2018: 14:30:09 Link R1 setting changed to   0.61 by Control ToolkitAPI
   02/06/2018: 14:30:09 Link R2 setting changed to   0.00 by Control ToolkitAPI
   02/06/2018: 14:30:09 Link R3 setting changed to   1.00 by Control ToolkitAPI
   02/06/2018: 14:30:09 Link R4 setting changed to   0.93 by Control ToolkitAPI
   02/06/2018: 14:30:09 Link R5 setting changed to   0.00 by Control ToolkitAPI
   02/06/2018: 14:30:09 Link R6 setting changed to   0.00 by Control ToolkitAPI
   02/06/2018: 14:45:09 Link R1 setting changed to   0.60 by Control ToolkitAPI
   02/06/2018: 14:45:09 Link R2 setting changed to   0.00 by Control ToolkitAPI
   02/06/2018: 14:45:09 Link R3 setting changed to   1.00 by Control ToolkitAPI
   02/06/2018: 14:45:09 Link R4 setting changed to   0.91 by Control ToolkitAPI
   02/06/2018: 14:45:09 Link R5 setting changed to   0.00 by Control ToolkitAPI
   02/06/2018: 14:45:09 Link R6 setting changed to   0.00 by Control ToolkitAPI
   02/06/2018: 15:00:09 Link R1 setting changed to   0.58 by Control ToolkitAPI
   02/06/2018: 15:00:09 Link R2 setting changed to   0.00 by Control ToolkitAPI
   02/06/2018: 15:00:09 Link R3 setting changed to   1.00 by Control ToolkitAPI
   02/06/2018: 15:00:09 Link R4 setting changed to   0.93 by Control ToolkitAPI
   02/06/2018: 15:00:09 Link R5 setting changed to   0.00 by Control ToolkitAPI
   02/06/2018: 15:00:09 Link R6 setting changed to   0.00 by Control ToolkitAPI
   02/06/2018: 15:15:09 Link R1 setting changed to   0.66 by Control ToolkitAPI
   02/06/2018: 15:15:09 Link R2 setting changed to   0.00 by Control ToolkitAPI
   02/06/2018: 15:15:09 Link R3 setting changed to   1.00 by Control ToolkitAPI
   02/06/2018: 15:15:09 Link R4 setting changed to   0.90 by Control ToolkitAPI
   02/06/2018: 15:15:09 Link R5 setting changed to   0.00 by Control ToolkitAPI
   02/06/2018: 15:15:09 Link R6 setting changed to   0.00 by Control ToolkitAPI
   02/06/2018: 15:30:09 Link R1 setting changed to   0.68 by Control ToolkitAPI
   02/06/2018: 15:30:09 Link R2 setting changed to   0.00 by Control ToolkitAPI
   02/06/2018: 15:30:09 Link R3 setting changed to   1.00 by Control ToolkitAPI
   02/06/2018: 15:30:09 Link R4 setting changed to   0.89 by Control ToolkitAPI
   02/06/2018: 15:30:09 Link R5 setting changed to   0.00 by Control ToolkitAPI
   02/06/2018: 15:30:09 Link R6 setting changed to   0.00 by Control ToolkitAPI
   02/06/2018: 15:45:09 Link R1 setting changed to   0.70 by Control ToolkitAPI
   02/06/2018: 15:45:09 Link R2 setting changed to   0.00 by Control ToolkitAPI
   02/06/2018: 15:45:09 Link R3 setting changed to   1.00 by Control ToolkitAPI
   02/06/2018: 15:45:09 Link R4 setting changed to   0.89 by Control ToolkitAPI
   02/06/2018: 15:45:09 Link R5 setting changed to   0.00 by Control ToolkitAPI
   02/06/2018: 15:45:09 Link R6 setting changed to   0.00 by Control ToolkitAPI
   02/06/2018: 16:00:09 Link R1 setting changed to   0.67 by Control ToolkitAPI
   02/06/2018: 16:00:09 Link R2 setting changed to   0.00 by Control ToolkitAPI
   02/06/2018: 16:00:09 Link R3 setting changed to   1.00 by Control ToolkitAPI
   02/06/2018: 16:00:09 Link R4 setting changed to   0.89 by Control ToolkitAPI
   02/06/2018: 16:00:09 Link R5 setting changed to   0.00 by Control ToolkitAPI
   02/06/2018: 16:00:09 Link R6 setting changed to   0.00 by Control ToolkitAPI
   02/06/2018: 16:15:09 Link R1 setting changed to   0.67 by Control ToolkitAPI
   02/06/2018: 16:15:09 Link R2 setting changed to   0.00 by Control ToolkitAPI
   02/06/2018: 16:15:09 Link R3 setting changed to   1.00 by Control ToolkitAPI
   02/06/2018: 16:15:09 Link R4 setting changed to   0.93 by Control ToolkitAPI
   02/06/2018: 16:15:09 Link R5 setting changed to   0.00 by Control ToolkitAPI
   02/06/2018: 16:15:09 Link R6 setting changed to   0.00 by Control ToolkitAPI
   02/06/2018: 16:30:09 Link R1 setting changed to   0.67 by Control ToolkitAPI
   02/06/2018: 16:30:09 Link R2 setting changed to   0.00 by Control ToolkitAPI
   02/06/2018: 16:30:09 Link R3 setting changed to   1.00 by Control ToolkitAPI
   02/06/2018: 16:30:09 Link R4 setting changed to   0.89 by Control ToolkitAPI
   02/06/2018: 16:30:09 Link R5 setting changed to   0.00 by Control ToolkitAPI
   02/06/2018: 16:30:09 Link R6 setting changed to   0.00 by Control ToolkitAPI
   02/06/2018: 16:45:09 Link R1 setting changed to   0.65 by Control ToolkitAPI
   02/06/2018: 16:45:09 Link R2 setting changed to   0.00 by Control ToolkitAPI
   02/06/2018: 16:45:09 Link R3 setting changed to   1.00 by Control ToolkitAPI
   02/06/2018: 16:45:09 Link R4 setting changed to   0.86 by Control ToolkitAPI
   02/06/2018: 16:45:09 Link R5 setting changed to   0.00 by Control ToolkitAPI
   02/06/2018: 16:45:09 Link R6 setting changed to   0.00 by Control ToolkitAPI
   02/06/2018: 17:00:09 Link R1 setting changed to   0.70 by Control ToolkitAPI
   02/06/2018: 17:00:09 Link R2 setting changed to   0.00 by Control ToolkitAPI
   02/06/2018: 17:00:09 Link R3 setting changed to   1.00 by Control ToolkitAPI
   02/06/2018: 17:00:09 Link R4 setting changed to   0.89 by Control ToolkitAPI
   02/06/2018: 17:00:09 Link R5 setting changed to   0.00 by Control ToolkitAPI
   02/06/2018: 17:00:09 Link R6 setting changed to   0.00 by Control ToolkitAPI
   02/06/2018: 17:15:09 Link R1 setting changed to   0.69 by Control ToolkitAPI
   02/06/2018: 17:15:09 Link R2 setting changed to   0.01 by Control ToolkitAPI
   02/06/2018: 17:15:09 Link R3 setting changed to   1.00 by Control ToolkitAPI
   02/06/2018: 17:15:09 Link R4 setting changed to   0.84 by Control ToolkitAPI
   02/06/2018: 17:15:09 Link R5 setting changed to   0.00 by Control ToolkitAPI
   02/06/2018: 17:15:09 Link R6 setting changed to   0.00 by Control ToolkitAPI
   02/06/2018: 17:30:09 Link R1 setting changed to   0.63 by Control ToolkitAPI
   02/06/2018: 17:30:09 Link R2 setting changed to   0.00 by Control ToolkitAPI
   02/06/2018: 17:30:09 Link R3 setting changed to   1.00 by Control ToolkitAPI
   02/06/2018: 17:30:09 Link R4 setting changed to   0.85 by Control ToolkitAPI
   02/06/2018: 17:30:09 Link R5 setting changed to   0.00 by Control ToolkitAPI
   02/06/2018: 17:30:09 Link R6 setting changed to   0.00 by Control ToolkitAPI
   02/06/2018: 17:45:09 Link R1 setting changed to   0.64 by Control ToolkitAPI
   02/06/2018: 17:45:09 Link R2 setting changed to   0.00 by Control ToolkitAPI
   02/06/2018: 17:45:09 Link R3 setting changed to   1.00 by Control ToolkitAPI
   02/06/2018: 17:45:09 Link R4 setting changed to   0.81 by Control ToolkitAPI
   02/06/2018: 17:45:09 Link R5 setting changed to   0.00 by Control ToolkitAPI
   02/06/2018: 17:45:09 Link R6 setting changed to   0.00 by Control ToolkitAPI
   02/06/2018: 18:00:09 Link R1 setting changed to   0.65 by Control ToolkitAPI
   02/06/2018: 18:00:09 Link R2 setting changed to   0.01 by Control ToolkitAPI
   02/06/2018: 18:00:09 Link R3 setting changed to   1.00 by Control ToolkitAPI
   02/06/2018: 18:00:09 Link R4 setting changed to   0.84 by Control ToolkitAPI
   02/06/2018: 18:00:09 Link R5 setting changed to   0.00 by Control ToolkitAPI
   02/06/2018: 18:00:09 Link R6 setting changed to   0.00 by Control ToolkitAPI
   02/06/2018: 18:15:09 Link R1 setting changed to   0.69 by Control ToolkitAPI
   02/06/2018: 18:15:09 Link R2 setting changed to   0.02 by Control ToolkitAPI
   02/06/2018: 18:15:09 Link R3 setting changed to   1.00 by Control ToolkitAPI
   02/06/2018: 18:15:09 Link R4 setting changed to   0.86 by Control ToolkitAPI
   02/06/2018: 18:15:09 Link R5 setting changed to   0.00 by Control ToolkitAPI
   02/06/2018: 18:15:09 Link R6 setting changed to   0.00 by Control ToolkitAPI
   02/06/2018: 18:30:09 Link R1 setting changed to   0.68 by Control ToolkitAPI
   02/06/2018: 18:30:09 Link R2 setting changed to   0.05 by Control ToolkitAPI
   02/06/2018: 18:30:09 Link R3 setting changed to   1.00 by Control ToolkitAPI
   02/06/2018: 18:30:09 Link R4 setting changed to   0.85 by Control ToolkitAPI
   02/06/2018: 18:30:09 Link R5 setting changed to   0.00 by Control ToolkitAPI
   02/06/2018: 18:30:09 Link R6 setting changed to   0.00 by Control ToolkitAPI
   02/06/2018: 18:45:09 Link R1 setting changed to   0.66 by Control ToolkitAPI
   02/06/2018: 18:45:09 Link R2 setting changed to   0.06 by Control ToolkitAPI
   02/06/2018: 18:45:09 Link R3 setting changed to   1.00 by Control ToolkitAPI
   02/06/2018: 18:45:09 Link R4 setting changed to   0.87 by Control ToolkitAPI
   02/06/2018: 18:45:09 Link R5 setting changed to   0.00 by Control ToolkitAPI
   02/06/2018: 18:45:09 Link R6 setting changed to   0.00 by Control ToolkitAPI
   02/06/2018: 19:00:09 Link R1 setting changed to   0.69 by Control ToolkitAPI
   02/06/2018: 19:00:09 Link R2 setting changed to   0.05 by Control ToolkitAPI
   02/06/2018: 19:00:09 Link R3 setting changed to   1.00 by Control ToolkitAPI
   02/06/2018: 19:00:09 Link R4 setting changed to   0.88 by Control ToolkitAPI
   02/06/2018: 19:00:09 Link R5 setting changed to   0.00 by Control ToolkitAPI
   02/06/2018: 19:00:09 Link R6 setting changed to   0.00 by Control ToolkitAPI
   02/06/2018: 19:15:09 Link R1 setting changed to   0.70 by Control ToolkitAPI
   02/06/2018: 19:15:09 Link R2 setting changed to   0.07 by Control ToolkitAPI
   02/06/2018: 19:15:09 Link R3 setting changed to   1.00 by Control ToolkitAPI
   02/06/2018: 19:15:09 Link R4 setting changed to   0.82 by Control ToolkitAPI
   02/06/2018: 19:15:09 Link R5 setting changed to   0.00 by Control ToolkitAPI
   02/06/2018: 19:15:09 Link R6 setting changed to   0.00 by Control ToolkitAPI
   02/06/2018: 19:30:09 Link R1 setting changed to   0.68 by Control ToolkitAPI
   02/06/2018: 19:30:09 Link R2 setting changed to   0.09 by Control ToolkitAPI
   02/06/2018: 19:30:09 Link R3 setting changed to   1.00 by Control ToolkitAPI
   02/06/2018: 19:30:09 Link R4 setting changed to   0.83 by Control ToolkitAPI
   02/06/2018: 19:30:09 Link R5 setting changed to   0.00 by Control ToolkitAPI
   02/06/2018: 19:30:09 Link R6 setting changed to   0.00 by Control ToolkitAPI
   02/06/2018: 19:45:09 Link R1 setting changed to   0.73 by Control ToolkitAPI
   02/06/2018: 19:45:09 Link R2 setting changed to   0.12 by Control ToolkitAPI
   02/06/2018: 19:45:09 Link R3 setting changed to   1.00 by Control ToolkitAPI
   02/06/2018: 19:45:09 Link R4 setting changed to   0.82 by Control ToolkitAPI
   02/06/2018: 19:45:09 Link R5 setting changed to   0.00 by Control ToolkitAPI
   02/06/2018: 19:45:09 Link R6 setting changed to   0.00 by Control ToolkitAPI
   02/06/2018: 20:00:09 Link R1 setting changed to   0.74 by Control ToolkitAPI
   02/06/2018: 20:00:09 Link R2 setting changed to   0.11 by Control ToolkitAPI
   02/06/2018: 20:00:09 Link R3 setting changed to   1.00 by Control ToolkitAPI
   02/06/2018: 20:00:09 Link R4 setting changed to   0.81 by Control ToolkitAPI
   02/06/2018: 20:00:09 Link R5 setting changed to   0.00 by Control ToolkitAPI
   02/06/2018: 20:00:09 Link R6 setting changed to   0.00 by Control ToolkitAPI
   02/06/2018: 20:15:09 Link R1 setting changed to   0.83 by Control ToolkitAPI
   02/06/2018: 20:15:09 Link R2 setting changed to   0.11 by Control ToolkitAPI
   02/06/2018: 20:15:09 Link R3 setting changed to   1.00 by Control ToolkitAPI
   02/06/2018: 20:15:09 Link R4 setting changed to   0.82 by Control ToolkitAPI
   02/06/2018: 20:15:09 Link R5 setting changed to   0.00 by Control ToolkitAPI
   02/06/2018: 20:15:09 Link R6 setting changed to   0.00 by Control ToolkitAPI
   02/06/2018: 20:30:09 Link R1 setting changed to   0.84 by Control ToolkitAPI
   02/06/2018: 20:30:09 Link R2 setting changed to   0.14 by Control ToolkitAPI
   02/06/2018: 20:30:09 Link R3 setting changed to   1.00 by Control ToolkitAPI
   02/06/2018: 20:30:09 Link R4 setting changed to   0.83 by Control ToolkitAPI
   02/06/2018: 20:30:09 Link R5 setting changed to   0.00 by Control ToolkitAPI
   02/06/2018: 20:30:09 Link R6 setting changed to   0.00 by Control ToolkitAPI
