
  EPA STORM WATER MANAGEMENT MODEL - VERSION 5.1 (Build 5.2.0.dev3)
  --------------------------------------------------------------

  
  *********************************************************
  NOTE: The summary statistics displayed in this report are
  based on results found at every computational time step,  
  not just on results from each reporting time step.
  *********************************************************
  
  ****************
  Analysis Options
  ****************
  Flow Units ............... CFS
  Process Models:
    Rainfall/Runoff ........ YES
    RDII ................... NO
    Snowmelt ............... NO
    Groundwater ............ NO
    Flow Routing ........... YES
    Ponding Allowed ........ NO
    Water Quality .......... NO
  Infiltration Method ...... MODIFIED_GREEN_AMPT
  Flow Routing Method ...... DYNWAVE
  Starting Date ............ 02/06/2018 00:00:00
  Ending Date .............. 02/07/2018 00:00:00
  Antecedent Dry Days ...... 0.0
  Report Time Step ......... 00:01:00
  Wet Time Step ............ 00:05:00
  Dry Time Step ............ 01:00:00
  Routing Time Step ........ 10.00 sec
  Variable Time Step ....... YES
  Maximum Trials ........... 8
  Number of Threads ........ 1
  Head Tolerance ........... 0.005000 ft
  
  
  *********************
  Control Actions Taken
  *********************
   02/06/2018: 00:00:00 Link R1 setting changed to   0.00 by Control ToolkitAPI
   02/06/2018: 00:00:00 Link R2 setting changed to   0.00 by Control ToolkitAPI
   02/06/2018: 00:00:00 Link R1 setting changed to   0.04 by Control ToolkitAPI
   02/06/2018: 00:00:00 Link R2 setting changed to   0.48 by Control ToolkitAPI
   02/06/2018: 00:15:01 Link R1 setting changed to   0.00 by Control ToolkitAPI
   02/06/2018: 00:15:01 Link R2 setting changed to   0.19 by Control ToolkitAPI
   02/06/2018: 00:30:01 Link R1 setting changed to   0.00 by Control ToolkitAPI
   02/06/2018: 00:30:01 Link R2 setting changed to   0.45 by Control ToolkitAPI
   02/06/2018: 00:45:01 Link R1 setting changed to   0.00 by Control ToolkitAPI
   02/06/2018: 00:45:01 Link R2 setting changed to   0.29 by Control ToolkitAPI
   02/06/2018: 01:00:01 Link R1 setting changed to   0.00 by Control ToolkitAPI
   02/06/2018: 01:00:01 Link R2 setting changed to   0.48 by Control ToolkitAPI
   02/06/2018: 01:15:01 Link R1 setting changed to   0.05 by Control ToolkitAPI
   02/06/2018: 01:15:01 Link R2 setting changed to   0.25 by Control ToolkitAPI
   02/06/2018: 01:30:01 Link R1 setting changed to   0.03 by Control ToolkitAPI
   02/06/2018: 01:30:01 Link R2 setting changed to   0.46 by Control ToolkitAPI
   02/06/2018: 01:45:01 Link R1 setting changed to   0.06 by Control ToolkitAPI
   02/06/2018: 01:45:01 Link R2 setting changed to   0.20 by Control ToolkitAPI
   02/06/2018: 02:00:01 Link R1 setting changed to   0.06 by Control ToolkitAPI
   02/06/2018: 02:00:01 Link R2 setting changed to   0.45 by Control ToolkitAPI
   02/06/2018: 02:15:01 Link R1 setting changed to   0.08 by Control ToolkitAPI
   02/06/2018: 02:15:01 Link R2 setting changed to   0.22 by Control ToolkitAPI
   02/06/2018: 02:30:01 Link R1 setting changed to   0.08 by Control ToolkitAPI
   02/06/2018: 02:30:01 Link R2 setting changed to   0.41 by Control ToolkitAPI
   02/06/2018: 02:45:01 Link R1 setting changed to   0.11 by Control ToolkitAPI
   02/06/2018: 02:45:01 Link R2 setting changed to   0.23 by Control ToolkitAPI
   02/06/2018: 03:00:01 Link R1 setting changed to   0.10 by Control ToolkitAPI
   02/06/2018: 03:00:01 Link R2 setting changed to   0.49 by Control ToolkitAPI
   02/06/2018: 03:15:01 Link R1 setting changed to   0.12 by Control ToolkitAPI
   02/06/2018: 03:15:01 Link R2 setting changed to   0.21 by Control ToolkitAPI
   02/06/2018: 03:30:01 Link R1 setting changed to   0.15 by Control ToolkitAPI
   02/06/2018: 03:30:01 Link R2 setting changed to   0.55 by Control ToolkitAPI
   02/06/2018: 03:45:01 Link R1 setting changed to   0.14 by Control ToolkitAPI
   02/06/2018: 03:45:01 Link R2 setting changed to   0.15 by Control ToolkitAPI
   02/06/2018: 04:00:01 Link R1 setting changed to   0.08 by Control ToolkitAPI
   02/06/2018: 04:00:01 Link R2 setting changed to   0.60 by Control ToolkitAPI
   02/06/2018: 04:15:01 Link R1 setting changed to   0.05 by Control ToolkitAPI
   02/06/2018: 04:15:01 Link R2 setting changed to   0.32 by Control ToolkitAPI
   02/06/2018: 04:30:01 Link R1 setting changed to   0.04 by Control ToolkitAPI
   02/06/2018: 04:30:01 Link R2 setting changed to   0.66 by Control ToolkitAPI
   02/06/2018: 04:45:01 Link R1 setting changed to   0.04 by Control ToolkitAPI
   02/06/2018: 04:45:01 Link R2 setting changed to   0.41 by Control ToolkitAPI
   02/06/2018: 05:00:01 Link R1 setting changed to   0.06 by Control ToolkitAPI
   02/06/2018: 05:00:01 Link R2 setting changed to   0.64 by Control ToolkitAPI
   02/06/2018: 05:15:01 Link R1 setting changed to   0.02 by Control ToolkitAPI
   02/06/2018: 05:15:01 Link R2 setting changed to   0.57 by Control ToolkitAPI
   02/06/2018: 05:30:01 Link R1 setting changed to   0.00 by Control ToolkitAPI
   02/06/2018: 05:30:01 Link R2 setting changed to   0.85 by Control ToolkitAPI
   02/06/2018: 05:45:01 Link R1 setting changed to   0.00 by Control ToolkitAPI
   02/06/2018: 05:45:01 Link R2 setting changed to   0.15 by Control ToolkitAPI
   02/06/2018: 06:00:01 Link R1 setting changed to   0.02 by Control ToolkitAPI
   02/06/2018: 06:00:01 Link R2 setting changed to   1.00 by Control ToolkitAPI
   02/06/2018: 06:15:09 Link R1 setting changed to   0.00 by Control ToolkitAPI
   02/06/2018: 06:15:09 Link R2 setting changed to   1.00 by Control ToolkitAPI
   02/06/2018: 06:30:09 Link R1 setting changed to   0.00 by Control ToolkitAPI
   02/06/2018: 06:30:09 Link R2 setting changed to   1.00 by Control ToolkitAPI
   02/06/2018: 06:45:09 Link R1 setting changed to   0.00 by Control ToolkitAPI
   02/06/2018: 06:45:09 Link R2 setting changed to   1.00 by Control ToolkitAPI
   02/06/2018: 07:00:09 Link R1 setting changed to   0.00 by Control ToolkitAPI
   02/06/2018: 07:00:09 Link R2 setting changed to   1.00 by Control ToolkitAPI
   02/06/2018: 07:15:09 Link R1 setting changed to   0.00 by Control ToolkitAPI
   02/06/2018: 07:15:09 Link R2 setting changed to   1.00 by Control ToolkitAPI
   02/06/2018: 07:30:09 Link R1 setting changed to   0.00 by Control ToolkitAPI
   02/06/2018: 07:30:09 Link R2 setting changed to   1.00 by Control ToolkitAPI
   02/06/2018: 07:45:09 Link R1 setting changed to   0.00 by Control ToolkitAPI
   02/06/2018: 07:45:09 Link R2 setting changed to   1.00 by Control ToolkitAPI
   02/06/2018: 08:00:09 Link R1 setting changed to   0.00 by Control ToolkitAPI
   02/06/2018: 08:00:09 Link R2 setting changed to   1.00 by Control ToolkitAPI
   02/06/2018: 08:15:09 Link R1 setting changed to   0.00 by Control ToolkitAPI
   02/06/2018: 08:15:09 Link R2 setting changed to   1.00 by Control ToolkitAPI
   02/06/2018: 08:30:09 Link R1 setting changed to   0.00 by Control ToolkitAPI
   02/06/2018: 08:30:09 Link R2 setting changed to   1.00 by Control ToolkitAPI
   02/06/2018: 08:45:09 Link R1 setting changed to   0.00 by Control ToolkitAPI
   02/06/2018: 08:45:09 Link R2 setting changed to   1.00 by Control ToolkitAPI
   02/06/2018: 09:00:09 Link R1 setting changed to   0.00 by Control ToolkitAPI
   02/06/2018: 09:00:09 Link R2 setting changed to   1.00 by Control ToolkitAPI
   02/06/2018: 09:15:09 Link R1 setting changed to   0.00 by Control ToolkitAPI
   02/06/2018: 09:15:09 Link R2 setting changed to   1.00 by Control ToolkitAPI
   02/06/2018: 09:30:09 Link R1 setting changed to   0.00 by Control ToolkitAPI
   02/06/2018: 09:30:09 Link R2 setting changed to   1.00 by Control ToolkitAPI
   02/06/2018: 09:45:09 Link R1 setting changed to   0.00 by Control ToolkitAPI
   02/06/2018: 09:45:09 Link R2 setting changed to   1.00 by Control ToolkitAPI
   02/06/2018: 10:00:09 Link R1 setting changed to   0.00 by Control ToolkitAPI
   02/06/2018: 10:00:09 Link R2 setting changed to   1.00 by Control ToolkitAPI
   02/06/2018: 10:15:09 Link R1 setting changed to   0.00 by Control ToolkitAPI
   02/06/2018: 10:15:09 Link R2 setting changed to   1.00 by Control ToolkitAPI
   02/06/2018: 10:30:09 Link R1 setting changed to   0.00 by Control ToolkitAPI
   02/06/2018: 10:30:09 Link R2 setting changed to   1.00 by Control ToolkitAPI
   02/06/2018: 10:45:09 Link R1 setting changed to   0.00 by Control ToolkitAPI
   02/06/2018: 10:45:09 Link R2 setting changed to   1.00 by Control ToolkitAPI
   02/06/2018: 11:00:09 Link R1 setting changed to   0.00 by Control ToolkitAPI
   02/06/2018: 11:00:09 Link R2 setting changed to   1.00 by Control ToolkitAPI
   02/06/2018: 11:15:09 Link R1 setting changed to   0.00 by Control ToolkitAPI
   02/06/2018: 11:15:09 Link R2 setting changed to   1.00 by Control ToolkitAPI
