
  EPA STORM WATER MANAGEMENT MODEL - VERSION 5.1 (Build 5.2.0.dev3)
  --------------------------------------------------------------

  
  *********************************************************
  NOTE: The summary statistics displayed in this report are
  based on results found at every computational time step,  
  not just on results from each reporting time step.
  *********************************************************
  
  ****************
  Analysis Options
  ****************
  Flow Units ............... CFS
  Process Models:
    Rainfall/Runoff ........ YES
    RDII ................... NO
    Snowmelt ............... NO
    Groundwater ............ NO
    Flow Routing ........... YES
    Ponding Allowed ........ NO
    Water Quality .......... NO
  Infiltration Method ...... MODIFIED_GREEN_AMPT
  Flow Routing Method ...... DYNWAVE
  Starting Date ............ 02/06/2018 00:00:00
  Ending Date .............. 02/07/2018 00:00:00
  Antecedent Dry Days ...... 0.0
  Report Time Step ......... 00:01:00
  Wet Time Step ............ 00:05:00
  Dry Time Step ............ 01:00:00
  Routing Time Step ........ 10.00 sec
  Variable Time Step ....... YES
  Maximum Trials ........... 8
  Number of Threads ........ 1
  Head Tolerance ........... 0.005000 ft
  
  
  *********************
  Control Actions Taken
  *********************
   02/06/2018: 00:00:00 Link R1 setting changed to   0.00 by Control ToolkitAPI
   02/06/2018: 00:00:00 Link R2 setting changed to   0.00 by Control ToolkitAPI
   02/06/2018: 00:00:00 Link R3 setting changed to   0.00 by Control ToolkitAPI
   02/06/2018: 00:00:00 Link R4 setting changed to   0.00 by Control ToolkitAPI
   02/06/2018: 00:00:00 Link R5 setting changed to   0.00 by Control ToolkitAPI
   02/06/2018: 00:00:00 Link R6 setting changed to   0.00 by Control ToolkitAPI
   02/06/2018: 00:00:00 Link R1 setting changed to   0.19 by Control ToolkitAPI
   02/06/2018: 00:00:00 Link R2 setting changed to   0.06 by Control ToolkitAPI
   02/06/2018: 00:00:00 Link R3 setting changed to   0.00 by Control ToolkitAPI
   02/06/2018: 00:00:00 Link R4 setting changed to   1.00 by Control ToolkitAPI
   02/06/2018: 00:00:00 Link R5 setting changed to   0.29 by Control ToolkitAPI
   02/06/2018: 00:00:00 Link R6 setting changed to   0.31 by Control ToolkitAPI
   02/06/2018: 00:15:07 Link R1 setting changed to   0.16 by Control ToolkitAPI
   02/06/2018: 00:15:07 Link R2 setting changed to   0.10 by Control ToolkitAPI
   02/06/2018: 00:15:07 Link R3 setting changed to   0.00 by Control ToolkitAPI
   02/06/2018: 00:15:07 Link R4 setting changed to   1.00 by Control ToolkitAPI
   02/06/2018: 00:15:07 Link R5 setting changed to   0.00 by Control ToolkitAPI
   02/06/2018: 00:15:07 Link R6 setting changed to   0.37 by Control ToolkitAPI
   02/06/2018: 00:30:07 Link R1 setting changed to   0.15 by Control ToolkitAPI
   02/06/2018: 00:30:07 Link R2 setting changed to   0.11 by Control ToolkitAPI
   02/06/2018: 00:30:07 Link R3 setting changed to   0.57 by Control ToolkitAPI
   02/06/2018: 00:30:07 Link R4 setting changed to   1.00 by Control ToolkitAPI
   02/06/2018: 00:30:07 Link R5 setting changed to   0.00 by Control ToolkitAPI
   02/06/2018: 00:30:07 Link R6 setting changed to   0.38 by Control ToolkitAPI
   02/06/2018: 00:45:07 Link R1 setting changed to   0.16 by Control ToolkitAPI
   02/06/2018: 00:45:07 Link R2 setting changed to   0.07 by Control ToolkitAPI
   02/06/2018: 00:45:07 Link R3 setting changed to   0.89 by Control ToolkitAPI
   02/06/2018: 00:45:07 Link R4 setting changed to   1.00 by Control ToolkitAPI
   02/06/2018: 00:45:07 Link R5 setting changed to   0.00 by Control ToolkitAPI
   02/06/2018: 00:45:07 Link R6 setting changed to   0.00 by Control ToolkitAPI
   02/06/2018: 01:00:07 Link R1 setting changed to   0.19 by Control ToolkitAPI
   02/06/2018: 01:00:07 Link R2 setting changed to   0.10 by Control ToolkitAPI
   02/06/2018: 01:00:07 Link R3 setting changed to   0.87 by Control ToolkitAPI
   02/06/2018: 01:00:07 Link R4 setting changed to   1.00 by Control ToolkitAPI
   02/06/2018: 01:00:07 Link R5 setting changed to   0.00 by Control ToolkitAPI
   02/06/2018: 01:00:07 Link R6 setting changed to   0.00 by Control ToolkitAPI
   02/06/2018: 01:15:07 Link R1 setting changed to   0.23 by Control ToolkitAPI
   02/06/2018: 01:15:07 Link R2 setting changed to   0.14 by Control ToolkitAPI
   02/06/2018: 01:15:07 Link R3 setting changed to   0.87 by Control ToolkitAPI
   02/06/2018: 01:15:07 Link R4 setting changed to   1.00 by Control ToolkitAPI
   02/06/2018: 01:15:07 Link R5 setting changed to   0.00 by Control ToolkitAPI
   02/06/2018: 01:15:07 Link R6 setting changed to   0.00 by Control ToolkitAPI
   02/06/2018: 01:30:07 Link R1 setting changed to   0.19 by Control ToolkitAPI
   02/06/2018: 01:30:07 Link R2 setting changed to   0.08 by Control ToolkitAPI
   02/06/2018: 01:30:07 Link R3 setting changed to   0.88 by Control ToolkitAPI
   02/06/2018: 01:30:07 Link R4 setting changed to   1.00 by Control ToolkitAPI
   02/06/2018: 01:30:07 Link R5 setting changed to   0.00 by Control ToolkitAPI
   02/06/2018: 01:30:07 Link R6 setting changed to   0.00 by Control ToolkitAPI
   02/06/2018: 01:45:07 Link R1 setting changed to   0.19 by Control ToolkitAPI
   02/06/2018: 01:45:07 Link R2 setting changed to   0.04 by Control ToolkitAPI
   02/06/2018: 01:45:07 Link R3 setting changed to   0.91 by Control ToolkitAPI
   02/06/2018: 01:45:07 Link R4 setting changed to   1.00 by Control ToolkitAPI
   02/06/2018: 01:45:07 Link R5 setting changed to   0.02 by Control ToolkitAPI
   02/06/2018: 01:45:07 Link R6 setting changed to   0.00 by Control ToolkitAPI
   02/06/2018: 02:00:07 Link R1 setting changed to   0.15 by Control ToolkitAPI
   02/06/2018: 02:00:07 Link R2 setting changed to   0.05 by Control ToolkitAPI
   02/06/2018: 02:00:07 Link R3 setting changed to   0.92 by Control ToolkitAPI
   02/06/2018: 02:00:07 Link R4 setting changed to   1.00 by Control ToolkitAPI
   02/06/2018: 02:00:07 Link R5 setting changed to   0.02 by Control ToolkitAPI
   02/06/2018: 02:00:07 Link R6 setting changed to   0.00 by Control ToolkitAPI
   02/06/2018: 02:15:07 Link R1 setting changed to   0.13 by Control ToolkitAPI
   02/06/2018: 02:15:07 Link R2 setting changed to   0.07 by Control ToolkitAPI
   02/06/2018: 02:15:07 Link R3 setting changed to   0.94 by Control ToolkitAPI
   02/06/2018: 02:15:07 Link R4 setting changed to   1.00 by Control ToolkitAPI
   02/06/2018: 02:15:07 Link R5 setting changed to   0.04 by Control ToolkitAPI
   02/06/2018: 02:15:07 Link R6 setting changed to   0.00 by Control ToolkitAPI
   02/06/2018: 02:30:07 Link R1 setting changed to   0.11 by Control ToolkitAPI
   02/06/2018: 02:30:07 Link R2 setting changed to   0.01 by Control ToolkitAPI
   02/06/2018: 02:30:07 Link R3 setting changed to   0.95 by Control ToolkitAPI
   02/06/2018: 02:30:07 Link R4 setting changed to   1.00 by Control ToolkitAPI
   02/06/2018: 02:30:07 Link R5 setting changed to   0.06 by Control ToolkitAPI
   02/06/2018: 02:30:07 Link R6 setting changed to   0.00 by Control ToolkitAPI
   02/06/2018: 02:45:07 Link R1 setting changed to   0.06 by Control ToolkitAPI
   02/06/2018: 02:45:07 Link R2 setting changed to   0.08 by Control ToolkitAPI
   02/06/2018: 02:45:07 Link R3 setting changed to   0.96 by Control ToolkitAPI
   02/06/2018: 02:45:07 Link R4 setting changed to   1.00 by Control ToolkitAPI
   02/06/2018: 02:45:07 Link R5 setting changed to   0.02 by Control ToolkitAPI
   02/06/2018: 02:45:07 Link R6 setting changed to   0.00 by Control ToolkitAPI
   02/06/2018: 03:00:07 Link R1 setting changed to   0.06 by Control ToolkitAPI
   02/06/2018: 03:00:07 Link R2 setting changed to   0.07 by Control ToolkitAPI
   02/06/2018: 03:00:07 Link R3 setting changed to   0.96 by Control ToolkitAPI
   02/06/2018: 03:00:07 Link R4 setting changed to   1.00 by Control ToolkitAPI
   02/06/2018: 03:00:07 Link R5 setting changed to   0.05 by Control ToolkitAPI
   02/06/2018: 03:00:07 Link R6 setting changed to   0.00 by Control ToolkitAPI
   02/06/2018: 03:15:07 Link R1 setting changed to   0.04 by Control ToolkitAPI
   02/06/2018: 03:15:07 Link R2 setting